# 
# Template modified from:
# MOC3D Export Template Version 1.0
# Modified by Richard Winston 7/22/98
# 
# Modified from MODFLOW Template 1.4
# 
# Changes made by Argus Interware are marked by the initials YBI or RBW.
# 
Evaluate expression: MODFLOW_RF_Clear_Files()
Define Variable: InitialHeadName [String]
Define Variable: InitialHeadChoice [Boolean]
Set Variable: InitialHeadName:= "@edInitial@"
Set Variable: InitialHeadChoice:= @cbInitial@
Define Variable: ContinueSimulation [Boolean]
Define Variable: PIEVersionOK [Boolean]
# New Variables, RBW 7/22/98
Define Variable: Calibrate [Boolean]
Set Variable: Calibrate:= 0
Define Variable: UseCalibration [Boolean]
Set Variable: UseCalibration:= 0
If: IsNumber(Calibrate)
	Set Variable: UseCalibration:= Calibrate
End if
Define Variable: HeadPrintStyle [Boolean]
Define Variable: PrintMOC3DLocations [Boolean]
Set Variable: PrintMOC3DLocations:= @rgMOC3DConcFormat@
Define Variable: DrawdownPrintStyle [Boolean]
Define Variable: HeadPrintFormat [Integer]
Define Variable: DrawdownPrintFormat [Integer]
Define Variable: CalcElev [Boolean]
Define Variable: ThisConductance [Real]
Define Variable: AreaBoundaryInBlock [Boolean]
Define Variable: CurrentColumn [Integer]
Define Variable: CurrentRow [Integer]
Define Variable: Dummy [Real]
Define Variable: LayconString [String]
Define Variable: LayIndex [Integer]
Define Variable: DivIndex [Integer]
Define Variable: PeriodIndex [Integer]
Define Variable: StepIndex [Integer]
Define Variable: ListIndex [Integer]
Define Variable: ConcentrationList [Integer]
Define Variable: CurrentWellCount [Integer]
Define Variable: MaxWells [Integer]
Define Variable: CurrentDrainCount [Integer]
Define Variable: MaxDrains [Integer]
Define Variable: CurrentRiverCount [Integer]
Define Variable: MaxRivers [Integer]
Define Variable: CurrentGHBCount [Integer]
Define Variable: MaxGHBs [Integer]
Define Variable: TopElevationList [Integer]
Define Variable: BottomElevationList [Real]
Define Variable: ThicknessList [Integer]
Define Variable: KzList [Integer]
Define Variable: TempThickListStart [Integer]
Define Variable: TempThickIndex [Integer]
Define Variable: TempKzListStart [Integer]
Define Variable: TempKzListIndex [Integer]
Define Variable: ResultList [Integer]
Define Variable: CellThickness [Real]
Define Variable: LayerThickness [Real]
Define Variable: LayerTop [Real]
Define Variable: ProgressMax [Integer]
# End New Variables, RBW 7/22/98
Evaluate expression: MODFLOW_L_Initialize()
# 
# Define root filename for MODFLOW files:
Define Variable: FileName [String]
# 
# Define variables for exporting packages
Define Variable: RunMoc3d [Integer]
Define Variable: ExportBAS [Integer]
Define Variable: ExportOC [Integer]
Define Variable: ExportBCF [Integer]
Define Variable: ExportRIV [Integer]
Define Variable: ExportRCH [Integer]
Define Variable: ExportWEL [Integer]
Define Variable: ExportDRN [Integer]
Define Variable: ExportEVT [Integer]
Define Variable: ExportGHB [Integer]
Define Variable: ExportSOL [Integer]
# 
# Set variables for exporting packages (0 prohibits export of package, != 0 enables export of package)
Set Variable: RunMoc3d:= @cbUseSolute@
Set Variable: ExportBAS:= @cbExpBAS@
Set Variable: ExportOC:= @cbExpOC@
Set Variable: ExportBCF:= @cbExpBCF@
Set Variable: ExportRIV:= @cbExpRIV@
Set Variable: ExportRCH:= @cbExpRCH@
Set Variable: ExportWEL:= @cbExpWEL@
Set Variable: ExportDRN:= @cfExpDRN@
Set Variable: ExportEVT:= @cbExpEVT@
Set Variable: ExportGHB:= @cbExpGHB@
Set Variable: ExportSOL:= @cbExpMatrix@
# 
# Define error flags
Define Variable: err_geo [Integer]
Define Variable: err_bcf_1 [Integer]
Define Variable: err_rch_1 [Integer]
Define Variable: err_evt_1 [Integer]
Define Variable: err_ghb_1 [Integer]
Define Variable: err_ghb_2 [Integer]
Define Variable: err_riv_1 [Integer]
Define Variable: err_riv_2 [Integer]
Define Variable: err_riv_3 [Integer]
Define Variable: err_riv_4 [Integer]
Define Variable: err_drn_1 [Integer]
Define Variable: err_drn_2 [Integer]
Define Variable: err_drn_3 [Integer]
Define Variable: err_drn_4 [Integer]
Define Variable: err_wel_1 [Integer]
Define Variable: err_wel_2 [Integer]
Define Variable: err_moc_1 [Integer]
# 
# Initialize Error flags
Set Variable: err_geo:= 0
Set Variable: err_bcf_1:= 0
Set Variable: err_rch_1:= 0
Set Variable: err_evt_1:= 0
Set Variable: err_ghb_1:= 0
Set Variable: err_ghb_2:= 0
Set Variable: err_riv_1:= 0
Set Variable: err_riv_2:= 0
Set Variable: err_riv_3:= 0
Set Variable: err_riv_4:= 0
Set Variable: err_drn_1:= 0
Set Variable: err_drn_2:= 0
Set Variable: err_drn_3:= 0
Set Variable: err_drn_4:= 0
Set Variable: err_wel_1:= 0
Set Variable: err_wel_2:= 0
Set Variable: err_moc_1:= 0
# 
# Define heading for export
Define Variable: Heading1 [String]
Define Variable: Heading2 [String]
# 
# Define ITMUNI, IAPART & ISTRT
Define Variable: ITMUNI [Integer]
Define Variable: IAPART [Integer]
Define Variable: ISTRT [Integer]
# 
# Define variable OPTION (FREE=none, FREE CHTOCH=flow between adjacent constant head cells is calculated)
Define Variable: OPTION [String]
Define Variable: CHTOCH [Boolean]
# 
# Define HNOFLO
Define Variable: HNOFLO [Real]
# 
# Define ISS (0=transient, 1=steady-state)
Define Variable: ISS [Integer]
# 
# Define variables and flags for rewetting package (HDRY, IWDFLG, WETFCT, IWETIT, IHDWET)
Define Variable: HDRY [Real]
Define Variable: IWDFLG [Integer]
Define Variable: WETFCT [Real]
Define Variable: IWETIT [Integer]
Define Variable: IHDWET [Integer]
# 
# Define flags for stress packages (0 = package is NOT executed, 1 = package is executed):
Define Variable: WellChoice [Integer]
Define Variable: RechargeChoice [Integer]
Define Variable: DrainChoice [Integer]
Define Variable: RiverChoice [Integer]
Define Variable: EvapotranspirationChoice [Integer]
Define Variable: GeneralHeadChoice [Integer]
# MOC3D
Define Variable: ExportTRANS [Integer]
Define Variable: ExportOBS [Integer]
Define Variable: TransportFlag [Integer]
Define Variable: Transport [Integer]
# 
# Define flags for steady or transient stresses (0=steady, 1=transient)
Define Variable: SteadyWell [Integer]
Define Variable: SteadyRecharge [Integer]
Define Variable: SteadyDrain [Integer]
Define Variable: SteadyRiver [Integer]
Define Variable: SteadyEVT [Integer]
Define Variable: SteadyGHB [Integer]
# 
# Define recharge option (NRCHOP=1 recharge only to the top grid layer, =2 vertical distribution of recharge specified from recharge elevation, =3 recharge applied to highest active cell in vertical dimension)
# (Assume recharge elevation is constant for entire simulation)
Define Variable: NRCHOP [Integer]
# 
# Define recharge option (NEVTOP=1 ET calculated only at top grid layer, =2 vertical distribution of ET specified from ET surface)
# (Assume ET surface and ET extinction depth are constant for entire simulation)
Define Variable: NEVTOP [Integer]
# 
# Define flag for output of head into an external file (0 = none, 1 = formatted, 2 = binary):
Define Variable: OutputHead [Integer]
# 
# Define flag for output of drawdown into an external file (0 = none, 1 = formatted, 2 = binary):
Define Variable: OutputDrawdown [Integer]
# 
# Define flag for writing file of cell-by-cell flows (0 = separate files, 1 = single file);
Define Variable: OneCBCFile [Integer]
# 
# Define flag for printing compact budget files (0 = regular, 1 = compact)
Define Variable: CompactBudget [Integer]
# 
# Define flag for writing cell-by-cell flow from each stress package (0 = do not write, 1 = write)
Define Variable: IBCFCB [Integer]
Define Variable: IWELCB [Integer]
Define Variable: IRCHCB [Integer]
Define Variable: IDRNCB [Integer]
Define Variable: IRIVCB [Integer]
Define Variable: IEVTCB [Integer]
Define Variable: IGHBCB [Integer]
Define Variable: OutputBudget [Integer]
# 
# Define flag for frequency of printing head, drawdown and budget information in external files (0 = none, -1 = last timestep of stress period, N = every Nth timestep):
Define Variable: FreqHeadFile [Integer]
Define Variable: FreqDrawdownFile [Integer]
Define Variable: FreqBudgetFile [Integer]
# 
# Define flags for frequency of output in listing file (0 = none, -1 = last timestep of stress period, N = every Nth timestep):
Define Variable: FreqHeadList [Integer]
Define Variable: FreqDrawdownList [Integer]
Define Variable: FreqBudgetList [Integer]
# 
# Define flag for matrix solver: (1 = SOR, 2 = SIP, 3 = PCG, 4 = DE4)
Define Variable: SolverChoice [Integer]
# 
# Define variables for SOR solver (SolverChoice=3)
# MXITER: Maximum number of outer iterations
Define Variable: SOR_MXITER [Integer]
# ACCL: Acceleration parameter
Define Variable: SOR_ACCL [Real]
# HCLOSE: Maximum absolute change in head used to check convergence.
Define Variable: SOR_HCLOSE [Real]
# IPRSOR: Printout interval for SOR.
Define Variable: SOR_IPRSOR [Integer]
# 
# Define variables for SIP solver (SolverChoice=0)
# MXITER: Maximum number of outer iterations
Define Variable: SIP_MXITER [Integer]
# NPARM: Number of iteration parameters
Define Variable: SIP_NPARM [Integer]
# ACCL: Acceleration parameter
Define Variable: SIP_ACCL [Real]
# HCLOSE: Maximum absolute change in head used to check convergence.
Define Variable: SIP_HCLOSE [Real]
# IPCALC: Flag to indicate seed for calculating iteration parameters (0=seed entered by user, 1=seed calculated at start of simulation)
Define Variable: SIP_IPCALC [Integer]
# WSEED: Seed for calculating iteration paramters
Define Variable: SIP_WSEED [Real]
# IPRSIP: Printout interval for SIP.
Define Variable: SIP_IPRSIP [Integer]
# 
# Define variable for PCG solver (SolverChoice=2)
# MXITER: Maximum number of outer iterations
Define Variable: PCG_MXITER [Integer]
# ITER1: Maximum number of inner iterations
Define Variable: PCG_ITER1 [Integer]
# NPCOND: Flag used to select matrix preconditioning method: 1=Modified incomplete Cholesky, 2=Polynomial
Define Variable: PCG_NPCOND [Real]
# HCLOSE: Maximum absolute change in head used to check convergence.
Define Variable: PCG_HCLOSE [Real]
# RCLOSE: Maximum absolute change in residual used to check convergence.
Define Variable: PCG_RCLOSE [Real]
# RELAX: Relation parameter used with NPCOND=1
Define Variable: PCG_RELAX [Real]
# NBPOL: Flag used when NPCOND=2 to indicate whether the estimate of the upper bound of the max eignevalue is 2, or will be calculated. NBPOL=2 specifies max eigenvalue as 2, NBPOL!=2 calculates estimate. (Not used for NBPOL!=2)
Define Variable: PCG_NBPOL [Integer]
# IPRPCG: Printout interval for PCG
Define Variable: PCG_IPRPCG [Integer]
# MUTPCG: Flag to control printing from solver, MUTPCG=0 print solver information, MUTPCG=1 only print iteration, MUTPCG=2 suppresses all printing.
Define Variable: PCG_MUTPCG [Integer]
# IPCGCD: Flag used for NPCOND=1 to control whether same Cholesky decomposition is used for multiple calls to PCG.
Define Variable: PCG_DAMP [Real]
# 
# Define variables for DE4 solver (SolverChoice=1)
# ITMX: maximum number of iterations
Define Variable: DE4_ITMX [Integer]
# MXUP: maximum number of equations in upper part
Define Variable: DE4_MXUP [Integer]
# MXLOW: maximum number of equations in lower part
Define Variable: DE4_MXLOW [Integer]
# MXBW: maximum bandwidth
Define Variable: DE4_MXBW [Integer]
# IFREQ: flag indicating frequency of change in coefficient matrix (1=flow equations are linear, 2=flow equations are linear but coefficients of simulated head may change at the beginning of stress period, 3=nonlinear flow equations)
Define Variable: DE4_IFREQ [Integer]
# MUTD4: Flag indicating printing at convergence (0=number of iterations printed & maximum head change, 1=number of iterations printed, 2=no information printed)
Define Variable: DE4_MUTD4 [Integer]
# ACCL: acceleration parameter
Define Variable: DE4_ACCL [Real]
# HCLOSE: convergence criteria for head
Define Variable: DE4_HCLOSE [Real]
# IPRD4: time step interval when printing out convergence information
Define Variable: DE4_IPRD4 [Integer]
# 
Define Variable: MOC_ISLAY1 [Integer]
Define Variable: MOC_ISLAY2 [Integer]
Define Variable: MOC_ISROW1 [Integer]
Define Variable: MOC_ISROW2 [Integer]
Define Variable: MOC_ISCOL1 [Integer]
Define Variable: MOC_ISCOL2 [Integer]
Define Variable: MOC_NODISP [Integer]
Define Variable: MOC_DECAY [Real]
Define Variable: MOC_DIFFUS [Real]
Define Variable: MOC_INTRPL [Integer]
Define Variable: MOC_CNOFLO [Real]
Define Variable: MOC_INCRCH [Integer]
Define Variable: MOC_IOBSFL [Integer]
# 
Define Variable: MOC_NPMAX [Integer]
Define Variable: MOC_CELDIS [Real]
Define Variable: MOC_FZERO [Real]
Define Variable: MOC_NPCUST [Integer]
Define Variable: MOC_NPTPND [Integer]
Define Variable: MOC_NPTPNDError [Boolean]
# 
Define Variable: MOC_CNC_OPT [Integer]
Define Variable: MOC_NPNTCL [Integer]
Define Variable: MOC_NPNTCLN [Integer]
Define Variable: MOC_VEL_OPT [Integer]
Define Variable: MOC_NPNTVL [Integer]
Define Variable: MOC_NPNTVLN [Integer]
Define Variable: MOC_NPNTDL [Integer]
Define Variable: MOC_NPNTDLN [Integer]
Define Variable: MOC_PRT_OPT [Integer]
Define Variable: MOC_NPNTPL [Integer]
Define Variable: MOC_NPNTPLN [Integer]
Define Variable: MOC_NSLAY [Integer]
Define Variable: MOC_CINFLBefore [Real]
Define Variable: MOC_CINFLAfter [Real]
# MOCIMP
Define Variable: MOC_EPSSLV [Real]
Define Variable: MOC_FDTMTH [Real]
Define Variable: MOC_IDIREC [Integer]
Define Variable: MOC_MAXIT [Integer]
Define Variable: MOC_NCXIT [Integer]
# 
Define Variable: MOC_NUMOBS [Integer]
Define Variable: NColsSub [Integer]
Define Variable: NRowsSub [Integer]
Define Variable: NLaySub [Integer]
Define Variable: FirstLay [Integer]
Define Variable: LastLay [Integer]
# 
# Define total number of model layers
Define Variable: NumLay [Integer]
# 
# Define number of geologic units in simulation
Define Variable: NumGeo [Integer]
Define Variable: TopSimul [Integer]
Define Variable: BotSimul [Integer]
# 
# Define dummy variables for looping and checking
Define Variable: i [Integer]
Define Variable: j [Integer]
Define Variable: k [Integer]
Define Variable: n [Integer]
Define Variable: ocflag [Integer]
Define Variable: M [Integer]
Define Variable: TempValue1 [Real]
Define Variable: TempValue2 [Real]
Define Variable: TempValue3 [Real]
Define Variable: TempValue4 [Real]
Define Variable: WD [Real]
Define Variable: WT [Real]
Define Variable: WB [Real]
Define Variable: TML [Real]
Define Variable: BML [Real]
# 
Define Variable: SegmentLength [Real]
Define Variable: ContourArea [Real]
# 
# added on June 16, 1997
Define Variable: L [Integer]
Define Variable: Lay_Flag [Integer]
Define Variable: Block_Num [Integer]
Define Variable: Block_Flag [Integer]
Define Variable: ok [Integer]
Define Variable: Test [Real]
# 
Define Variable: err_point [Integer]
Define Variable: err_line [Integer]
Define Variable: err_area1 [Integer]
Define Variable: err_area2 [Integer]
# 
Define Variable: GHB_MXBND [Integer]
Define Variable: RIV_MXRIVR [Integer]
Define Variable: DRN_MXDRN [Integer]
Define Variable: WEL_MXWELL [Integer]
Define Variable: DumRow [Integer]
Define Variable: DumCol [Integer]
Define Variable: DumLay [Integer]
# 
Define Variable: RunMODFLOW [Integer]
Define Variable: FreqHeadFileChoice [Integer]
Define Variable: FreqDrawdownFileChoice [Integer]
Define Variable: FreqBudFileChoice [Integer]
Define Variable: FreqHeadListChoice [Integer]
Define Variable: FreqDrawdownListChoice [Integer]
Define Variable: FreqBudListChoice [Integer]
# 
Set Variable: HeadPrintStyle:= @comboHeadPrintStyle@
Set Variable: DrawdownPrintStyle:= @comboDrawdownPrintStyle@
Set Variable: HeadPrintFormat:= @comboHeadPrintFormat@ + 1
Set Variable: DrawdownPrintFormat:= @comboDrawdownPrintFormat@ + 1
# 
Set Variable: FileName:= "@adeFileName@"
# 
Set Variable: Heading1:= "@adeTitle1@"
Set Variable: Heading2:= "@adeTitle2@"
# 
Set Variable: NumLay:= 0
Loop for: Variable LayIndex from: 1 to: MODFLOW_NLAY() step: 1
	Set Variable: NumLay:= NumLay+MODFLOW_SIMUL(LayIndex)*MODFLOW_NDIV(LayIndex)
End loop
# 
Set Variable: ITMUNI:= @comboTimeUnits@
Set Variable: IAPART:= @comboIAPART@
Set Variable: ISTRT:= @comboISTRT@
Set Variable: HNOFLO:= @adeHNOFLO@
# 
Set Variable: OPTION:= "FREE"
Set Variable: CHTOCH:= @cbCHTOCH@
If: CHTOCH
	Set Variable: OPTION:= OPTION + ", CHTOCH"
End if
# 
Set Variable: ISS:= @comboSteady@
Set Variable: HDRY:= @adeHDRY@
Set Variable: IWDFLG:= @comboWetCap@
Set Variable: WETFCT:= @adeWettingFact@
Set Variable: IWETIT:= @adeWetIterations@
Set Variable: IHDWET:= @comboWetEq@
# 
# Set variables for choice of stress packages and output control:
# 
Set Variable: WellChoice:= @cbWEL@&@cbWELRetain@
Set Variable: RechargeChoice:= @cbRCH@&@cbRCHRetain@
Set Variable: DrainChoice:= @cbDRN@&@cbDRNRetain@
Set Variable: RiverChoice:= @cbRIV@&@cbRIVRetain@
Set Variable: EvapotranspirationChoice:= @cbEVT@&@cbEVTRetain@
Set Variable: GeneralHeadChoice:= @cbGHB@&@cbGHBRetain@
# 
Define Variable: RechargeTest [Boolean]
Define Variable: SYTest [Boolean]
Define Variable: SsTest [Boolean]
# 
# MOC3D
# Set variable for exporting package (0 prohibits export of package, != 0 enables export of package)
Set Variable: ExportTRANS:= @cbExpCONC@
Set Variable: ExportOBS:= @cbExpOBS@
Set Variable: Transport:= @cbMOC3D@
Set Variable: TransportFlag:= Transport
If: Transport
	Set Variable: Transport:= Transport + @rgMOC3DSolver@
End if
# 
Set Variable: SteadyWell:= @comboWelSteady@
Set Variable: SteadyRecharge:= @comboRchSteady@
Set Variable: SteadyDrain:= @comboDrnSteady@
Set Variable: SteadyRiver:= @comboRivSteady@
Set Variable: SteadyEVT:= @comboEvtSteady@
Set Variable: SteadyGHB:= @comboGhbSteady@
# 
Set Variable: NRCHOP:= @comboRchOpt@ + 1
Set Variable: NEVTOP:= @comboEvtOption@ + 1
# 
Set Variable: OutputHead:= @comboExportHead@
Set Variable: OutputDrawdown:= @comboExportDrawdown@
# 
Set Variable: OneCBCFile:= @cbOneFlowFile@
Set Variable: CompactBudget:= @cbFlowBudget@
# 
Set Variable: IBCFCB:= @cbFlowBCF@
Set Variable: IWELCB:= @cbFlowWel@
Set Variable: IRCHCB:= @cbFlowRCH@
Set Variable: IDRNCB:= @cbFlowDrn@
Set Variable: IRIVCB:= @cbFlowRiv@
Set Variable: IEVTCB:= @cbFlowEVT@
Set Variable: IGHBCB:= @cbFlowGHB@
If: ((IBCFCB=1|(WellChoice=1&IWELCB=1)|(RechargeChoice=1&IRCHCB=1)|(DrainChoice=1&IDRNCB=1)|(RiverChoice=1&IRIVCB=1)|(EvapotranspirationChoice=1&IEVTCB=1)|(GeneralHeadChoice=1&IGHBCB=1)))
	Set Variable: OutputBudget:= 1
End if
# 
Set Variable: FreqHeadFileChoice:= @comboHeadPrintFreq@
If: FreqHeadFileChoice=0
	Set Variable: FreqHeadFile:= 0
Else
	If: FreqHeadFileChoice=1
		Set Variable: FreqHeadFile:= @adeHeadPrintFreq@
	Else
		Set Variable: FreqHeadFile:= -1
	End if
End if
# Set Variable: FreqHeadFile:= @HDEXP@
Set Variable: FreqDrawdownFileChoice:= @comboDrawdownPrintFreq@
If: FreqDrawdownFileChoice=0
	Set Variable: FreqDrawdownFile:= 0
Else
	If: FreqDrawdownFileChoice=1
		Set Variable: FreqDrawdownFile:= @adeDrawdownPrintFreq@
	Else
		Set Variable: FreqDrawdownFile:= -1
	End if
End if
# Set Variable: FreqDrawdownFile:= @DNEXP@
Set Variable: FreqBudFileChoice:= @comboBudPrintFreq@
If: FreqBudFileChoice=0
	Set Variable: FreqBudgetFile:= 0
Else
	If: FreqBudFileChoice=1
		Set Variable: FreqBudgetFile:= @adeBudPrintFreq@
	Else
		Set Variable: FreqBudgetFile:= -1
	End if
End if
# Set Variable: FreqBudgetFile:= @FLOWEXP@
# 
Set Variable: FreqHeadListChoice:= @comboHeadExportFreq@
If: FreqHeadListChoice=0
	Set Variable: FreqHeadList:= 0
Else
	If: FreqHeadListChoice=1
		Set Variable: FreqHeadList:= @adeHeadExportFreq@
	Else
		Set Variable: FreqHeadList:= -1
	End if
End if
# Set Variable: FreqHeadList:= @HDLIST@
Set Variable: FreqDrawdownListChoice:= @comboDrawdownExportFreq@
If: FreqDrawdownListChoice=0
	Set Variable: FreqDrawdownList:= 0
Else
	If: FreqDrawdownListChoice=1
		Set Variable: FreqDrawdownList:= @adeDrawdownExportFreq@
	Else
		Set Variable: FreqDrawdownList:= -1
	End if
End if
# Set Variable: FreqDrawdownList:= @DNLIST@
Set Variable: FreqBudListChoice:= @comboBudExportFreq@
If: FreqBudListChoice=0
	Set Variable: FreqBudgetList:= 0
Else
	If: FreqBudListChoice=1
		Set Variable: FreqBudgetList:= @adeBudExportFreq@
	Else
		Set Variable: FreqBudgetList:= -1
	End if
End if
# Set Variable: FreqBudgetList:= @BUDGETLIST@
# 
Set Variable: SolverChoice:= @rgSolMeth@
# 
# Set variables for SOR solver (SolverChoice=3)
Set Variable: SOR_MXITER:= @adeSORMaxIter@
Set Variable: SOR_ACCL:= @adeSORAccl@
Set Variable: SOR_HCLOSE:= @adeSORConv@
Set Variable: SOR_IPRSOR:= @adeSORPri@
# 
# Set variables for SIP solver (SolverChoice=0)
Set Variable: SIP_MXITER:= @adeSIPMaxIter@
Set Variable: SIP_NPARM:= @adeSIPNumParam@
Set Variable: SIP_ACCL:= @adeSIPAcclParam@
Set Variable: SIP_HCLOSE:= @adeSIPConv@
Set Variable: SIP_IPCALC:= @comboSIPIterSeed@
Set Variable: SIP_WSEED:= @adeSIPIterSeed@
Set Variable: SIP_IPRSIP:= @adeSIPPrint@
# 
# Set variables for PCG solver (SolverChoice=2)
Set Variable: PCG_MXITER:= @adePCGMaxOuter@
Set Variable: PCG_ITER1:= @adePCGMaxInner@
Set Variable: PCG_NPCOND:= @comboPCGPrecondMeth@ +1
Set Variable: PCG_HCLOSE:= @adePCGMaxHeadChange@
Set Variable: PCG_RCLOSE:= @adePCGMaxResChange@
Set Variable: PCG_RELAX:= @adePCGRelax@
Set Variable: PCG_NBPOL:= @comboPCGEigenValue@ + 1
Set Variable: PCG_IPRPCG:= @adePCGPrintInt@
Set Variable: PCG_MUTPCG:= @comboPCGPrint@
Set Variable: PCG_DAMP:= @adePCGDamp@
# 
# Set variables for DE4 solver (SolverChoice=1)
Set Variable: DE4_ITMX:= @adeDE4MaxIter@
Set Variable: DE4_MXUP:= @adeDE4MaxUp@
Set Variable: DE4_MXLOW:= @adeDE4MaxLow@
Set Variable: DE4_MXBW:= @adeDE4Band@
Set Variable: DE4_IFREQ:= @comboDE4Freq@ + 1
Set Variable: DE4_MUTD4:= @comboDE4Print@
Set Variable: DE4_ACCL:= @adeDE4Accl@
Set Variable: DE4_HCLOSE:= @adeDE4Conv@
Set Variable: DE4_IPRD4:= @adeDE4TimeStep@
# Set MOC3D variables
Set Variable: MOC_ISLAY1:= @adeMOC3DLay1@
Set Variable: MOC_ISLAY2:= @adeMOC3DLay2@
If: MOC_ISLAY2=-1
	Set Variable: MOC_ISLAY2:= MODFLOW_NLAY()
End if
Set Variable: MOC_ISROW1:= MOC_ISROW1()
Set Variable: MOC_ISROW2:= MOC_ISROW2()
Set Variable: MOC_ISCOL1:= MOC_ISCOL1()
Set Variable: MOC_ISCOL2:= MOC_ISCOL2()
Set Variable: MOC_NODISP:= @cbMOC3DNoDisp@
Set Variable: MOC_DECAY:= @adeMOC3DDecay@
Set Variable: MOC_DIFFUS:= @adeMOC3DDiffus@
Set Variable: MOC_INTRPL:= @comboMOC3DInterp@ + 1
Set Variable: MOC_CNOFLO:= @adeMOC3DCnoflow@
Set Variable: MOC_INCRCH:= -@comboMOC3DReadRech@
Set Variable: MOC_IOBSFL:= @comboMOC3DSaveWell@
# 
Set Variable: MOC_NPMAX:= @adeMOC3DMaxParticles@
Set Variable: MOC_CELDIS:= @adeMOC3DMaxFrac@
Set Variable: MOC_FZERO:= @adeMOC3DLimitActiveCells@
Set Variable: MOC_NPCUST:= @cbCustomParticle@
Set Variable: MOC_NPTPND:= @edMOC3DInitParticles@
# 
Set Variable: MOC_CNC_OPT:= @comboMOC3DConcFileType@
Set Variable: MOC_NPNTCL:= @comboMOC3DConcFreq@
Set Variable: MOC_NPNTCLN:= @adeMOC3DConcFreq@
Set Variable: MOC_VEL_OPT:= @comboMOC3DVelFileType@
Set Variable: MOC_NPNTVL:= @comboMOC3DVelFreq@
Set Variable: MOC_NPNTVLN:= @adeMOC3DVelFreq@
Set Variable: MOC_NPNTDL:= @comboMOC3DDispFreq@
Set Variable: MOC_NPNTDLN:= @adeMOC3DDispFreq@
Set Variable: MOC_PRT_OPT:= @comboMOC3DPartFileType@
Set Variable: MOC_NPNTPL:= @comboMOC3DPartFreq@
Set Variable: MOC_NPNTPLN:= @adeMOC3DPartFreq@
Set Variable: MOC_NSLAY:= @adeMOCNumLayers@
# Set Variable: MOC_CINFLBefore:= @MOC_CINFLBefore@
# Set Variable: MOC_CINFLAfter:= @MOC_CINFLAfter@
Set Variable: NColsSub:= MOC_ISCOL2-MOC_ISCOL1+1
Set Variable: NRowsSub:= MOC_ISROW2-MOC_ISROW1+1
Set Variable: NLaySub:= MOC_ISLAY2-MOC_ISLAY1+1
Define Variable: RowHeightList [Integer]
Define Variable: ColumnWidthList [Integer]
Define Variable: RowIndex [Integer]
Define Variable: ColumnIndex [Integer]
Define Variable: MinRow [Real]
Define Variable: MaxRow [Real]
Define Variable: MinColumn [Real]
Define Variable: MaxColumn [Real]
Define Variable: FirstRowHeight [Real]
Define Variable: FirstColumnWidth [Real]
Define Variable: CurrentRowHeight [Real]
Define Variable: CurrentColumnWidth [Real]
Define Variable: ObservationIndex [Integer]
# 
Define Variable: Dimensions [Integer]
Set Variable: MOC_NPTPNDError:= 0
If: RunMoc3d&!MOC_NPCUST
	Set Variable: Dimensions:= 0
	If: NLaySub>1
		Set Variable: Dimensions:= Dimensions + 1
	End if
	If: NRowsSub>1
		Set Variable: Dimensions:= Dimensions + 1
	End if
	If: NColsSub>1
		Set Variable: Dimensions:= Dimensions + 1
	End if
	If: Dimensions=1
		If: !((MOC_NPTPND=1)|(MOC_NPTPND=2)|(MOC_NPTPND=3)|(MOC_NPTPND=4))
			Set Variable: MOC_NPTPNDError:= 1
		End if
	End if
	If: Dimensions=2
		If: !((MOC_NPTPND=1)|(MOC_NPTPND=4)|(MOC_NPTPND=9)|(MOC_NPTPND=16))
			Set Variable: MOC_NPTPNDError:= 1
		End if
	End if
	If: Dimensions=3
		If: !((MOC_NPTPND=1)|(MOC_NPTPND=8)|(MOC_NPTPND=27))
			Set Variable: MOC_NPTPNDError:= 1
		End if
	End if
End if
# MOCIMP
Set Variable: MOC_EPSSLV:= @adeMOCTolerance@
Set Variable: MOC_FDTMTH:= @adeMOCWeightFactor@
Set Variable: MOC_IDIREC:= @comboMOC3D_IDIREC@ + 1
Set Variable: MOC_MAXIT:= @adeMOCMaxIter@
Set Variable: MOC_NCXIT:= @adeMOCNumIter@
# 
# MODPATH Variables
Define Variable: MODFLOWLayer [Integer]
Define Variable: MODPATHChoice [Boolean]
Define Variable: RechargeITOP [Integer]
Define Variable: EvapITOP [Integer]
# 
Set Variable: MODPATHChoice:= @cbMODPATH@
Set Variable: RechargeITOP:= @comboMODPATH_RechargeITOP@
Set Variable: EvapITOP:= @comboMODPATH_EvapITOP@
# 
Set Variable: RunMODFLOW:= @rbRun@
# 
Set Variable: NumGeo:= 0
Set Variable: TopSimul:= 0
Set Variable: BotSimul:= 0
# 
Loop for: Variable LayIndex from: 1 to: MODFLOW_NLAY() step: 1
	If: MODFLOW_SIMUL(LayIndex)!=0&TopSimul=0
		Set Variable: TopSimul:= LayIndex
	End if
End loop
# 
Loop for: Variable LayIndex from: MODFLOW_NLAY() to: 1 step: -1
	If: MODFLOW_SIMUL(LayIndex)!=0&BotSimul=0
		Set Variable: BotSimul:= LayIndex
	End if
End loop
# 
# Stream package variables
Define Variable: StreamChoice [Boolean]
Set Variable: StreamChoice:= @cbSTR@
Define Variable: ExportStreams [Boolean]
Set Variable: ExportStreams:= @cbExpStr@
Define Variable: ElevationAboveTopError [Boolean]
Define Variable: ElevationBelowBottomError [Boolean]
Define Variable: TributaryMaxAllowed [Integer]
Define Variable: StreamSegmentCount [Integer]
Define Variable: StreamSegmentList [Integer]
Define Variable: SortedStreamSegmentList [Integer]
Define Variable: StreamUnitList [Integer]
Define Variable: StreamTributaryList [Integer]
Define Variable: StreamIndex [Integer]
Define Variable: StreamIndex2 [Real]
Define Variable: Tributary2DArray [Integer]
Define Variable: TributaryIndex [Integer]
Define Variable: TributaryCount [Integer]
Define Variable: not_ok [Boolean]
Define Variable: StreamsSteady [Boolean]
Set Variable: StreamsSteady:= !@comboStreamOption@
Define Variable: StreamTop [Real]
Define Variable: DownstreamStreamTop [Real]
Define Variable: StreamBottom [Real]
Define Variable: DownstreamStreamBottom [Real]
Define Variable: StreamStage [Real]
Define Variable: DownstreamStreamStage [Real]
Define Variable: StreamConductance [Real]
Define Variable: Width [Real]
Define Variable: DownstreamWidth [Real]
Define Variable: ICALC [Integer]
Set Variable: ICALC:= @cbStreamCalcFlow@
Define Variable: UseTributaries [Boolean]
Set Variable: UseTributaries:= @cbStreamTrib@
Define Variable: UseDiversions [Boolean]
Set Variable: UseDiversions:= @cbStreamDiversions@
Set Variable: StreamSegmentList:= MODFLOW_L_CreateNewList()
Set Variable: SortedStreamSegmentList:= MODFLOW_L_CreateNewList()
Set Variable: StreamTributaryList:= MODFLOW_L_CreateNewList()
Set Variable: TributaryMaxAllowed:= 10
Set Variable: StreamUnitList:= MODFLOW_L_CreateNewList()
Define Variable: StreamProperties3DArray [Integer]
Define Variable: CurrentStream [Integer]
Define Variable: BlockIndex [Integer]
Define Variable: BlockListCount [Integer]
Define Variable: BlockTop [Real]
Define Variable: BlockBottom [Real]
Define Variable: StreamUnit [Integer]
Define Variable: CurrentStreamReachCount [Integer]
Define Variable: MaxStreamReachCount [Integer]
Define Variable: ISTCB1 [Integer]
Set Variable: ISTCB1:= @cbFlowSTR@
Define Variable: ISTCB2 [Integer]
Set Variable: ISTCB2:= @cbFlowSTR2@
Define Variable: NTRIB [Integer]
Define Variable: NTRIBCurrent [Integer]
Define Variable: NDIV [Integer]
# ModelLengthUnits = 0 -> m
# ModelLengthUnits = 1 -> ft
Define Variable: ModelLengthUnits [Integer]
Set Variable: ModelLengthUnits:= @comboModelUnits@
Define Variable: StreamCONST [Real]
Set Variable: StreamCONST:= 1
If: ICALC&StreamChoice
	If: ITMUNI=0
		Alert: "Error: You must specify the time unit to calculate the stage height in the stream package. Check the Time Tab of the Edit Project Info Dialog box."
	End if
	If: ITMUNI=1
		If: ModelLengthUnits
			Set Variable: StreamCONST:= 1.486
		Else
			Set Variable: StreamCONST:= 1
		End if
	End if
	If: ITMUNI=2
		If: ModelLengthUnits
			Set Variable: StreamCONST:= 89.16
		Else
			Set Variable: StreamCONST:= 60
		End if
	End if
	If: ITMUNI=3
		If: ModelLengthUnits
			Set Variable: StreamCONST:= 5349.6
		Else
			Set Variable: StreamCONST:= 3600
		End if
	End if
	If: ITMUNI=4
		If: ModelLengthUnits
			Set Variable: StreamCONST:= 128390.4
		Else
			Set Variable: StreamCONST:= 86400
		End if
	End if
	If: ITMUNI=5
		If: ModelLengthUnits
			Set Variable: StreamCONST:= 46784593
		Else
			Set Variable: StreamCONST:= 31447600
		End if
	End if
End if
Define Variable: FlowIndex [Integer]
Set Variable: FlowIndex:= 0
Define Variable: UpstreamStageIndex [Integer]
Set Variable: UpstreamStageIndex:= 1
Define Variable: DownstreamStageIndex [Integer]
Set Variable: DownstreamStageIndex:= 2
Define Variable: ConductivityIndex [Integer]
Set Variable: ConductivityIndex:= 3
Define Variable: UpstreamTopElevIndex [Integer]
Set Variable: UpstreamTopElevIndex:= 4
Define Variable: DownstreamTopElevIndex [Integer]
Set Variable: DownstreamTopElevIndex:= 5
Define Variable: UpstreamBotElevIndex [Integer]
Set Variable: UpstreamBotElevIndex:= 6
Define Variable: DownstreamBotElevIndex [Integer]
Set Variable: DownstreamBotElevIndex:= 7
Define Variable: UpstreamWidthIndex [Integer]
Set Variable: UpstreamWidthIndex:= 8
Define Variable: DownstreamWidthIndex [Integer]
Set Variable: DownstreamWidthIndex:= 9