unit MT3DFormUnit;

interface

uses
  Windows, Messages, SysUtils, Classes, Graphics, Controls, Forms, Dialogs,
  ModflowUnit, Menus, ComCtrls, ExtCtrls, StdCtrls, Grids, 
  ArgusDataEntry, Buttons, MT3DLayerStructureUnit, MFLayerStructureUnit,
  DataGrid, ASLink, VersInfo;


type
  TfrmMT3D = class(TfrmMODFLOW)
    tabMT3DBas: TTabSheet;
    sgMT3DTime: TStringGrid;
    tabMT3DAdv1: TTabSheet;
    lblMT3DAdvSolMethod: TLabel;
    lblMT3DParticleTracking: TLabel;
    lblMT3DNumCellsParticle: TLabel;
    lblMT3DMaxParticlesCount: TLabel;
    lblMT3DConcWeight: TLabel;
    lblMT3DNegConcGrad: TLabel;
    lblMT3DInitParticlesSmall: TLabel;
    lblMT3DInitParticlesLarge: TLabel;
    lblMT3DMIXELM: TLabel;
    lblMT3DITRACK: TLabel;
    lblMT3DPERCEL: TLabel;
    lblMT3DMXPART: TLabel;
    lblMT3DWD: TLabel;
    lblMT3DDCEPS: TLabel;
    lblMT3DNPL: TLabel;
    lblMT3DNPH: TLabel;
    tabMT3DAdv2: TTabSheet;
    lblMT3DInitParticlePlacement: TLabel;
    lblMT3DInitParticlePlanes: TLabel;
    lblMT3DMinParticles: TLabel;
    lblMT3DMaxParticles: TLabel;
    lblMT3DParticleMult: TLabel;
    lblMT3DInterpMeth: TLabel;
    lblMT3DSinkParticlePlacement: TLabel;
    lblMT3DSinParticlePlanes: TLabel;
    lblMT3DSinkParticleN: TLabel;
    lblMT3DCritConcGrad: TLabel;
    lblMT3DNPLANE: TLabel;
    lblMT3DNPMIN: TLabel;
    lblMT3DNPMAX: TLabel;
    lblMT3DSRMULT: TLabel;
    lblMT3DINTERP: TLabel;
    lblMT3DNLSINK: TLabel;
    lblMT3DNPSINK: TLabel;
    lblMT3DDCHMOC: TLabel;
    tabMT3DChem: TTabSheet;
    gboxMT3DChemReact: TGroupBox;
    lblMT3DSorptionType: TLabel;
    lblMT3DFirstOrderReaction: TLabel;
    lblMT3DISOTHM: TLabel;
    lblMT3DIREACT: TLabel;
    grBoxMT3DReaction: TGroupBox;
    comboMT3DAdvSolScheme: TComboBox;
    comboMT3DParticleTrackingAlg: TComboBox;
    adeMT3DMaxParticleMovement: TArgusDataEntry;
    adeMT3DMaxParticleCount: TArgusDataEntry;
    adeMT3DConcWeight: TArgusDataEntry;
    adeMT3DNeglSize: TArgusDataEntry;
    adeMT3DInitPartSmall: TArgusDataEntry;
    adeMT3DInitPartLarge: TArgusDataEntry;
    comboMT3DInitPartPlace: TComboBox;
    adeMT3DParticlePlaneCount: TArgusDataEntry;
    adeMT3DMinPartPerCell: TArgusDataEntry;
    adeMT3DMaxPartPerCell: TArgusDataEntry;
    adeMT3DParticleMult: TArgusDataEntry;
    comboMT3DInterpMeth: TComboBox;
    comboMT3DInitPartSinkChoice: TComboBox;
    adeMT3DSinkParticlePlaneCount: TArgusDataEntry;
    adeMT3DSinkParticleCount: TArgusDataEntry;
    adeMT3DCritRelConcGrad: TArgusDataEntry;
    comboMT3DIsotherm: TComboBox;
    comboMT3DIREACT: TComboBox;
    sgReaction: TStringGrid;
    tabMT3DOut: TTabSheet;
    cbPrintLinkFile: TCheckBox;
    lblMT3DPrintFormat: TLabel;
    comboPrintoutFormat: TComboBox;
    lblMT3DPrintConc: TLabel;
    lblMT3DPrintRetard: TLabel;
    lblMT3DPrintDisp: TLabel;
    lblMT3DPrintParticle: TLabel;
    lblMT3DPrintMassBal: TLabel;
    cbPrintConc: TCheckBox;
    cbPrintRetardation: TCheckBox;
    cbPrintDispCoef: TCheckBox;
    cbPrintNumParticles: TCheckBox;
    cbCheckMass: TCheckBox;
    comboConcentrationFormat: TComboBox;
    lblMT3DFormat: TLabel;
    comboRetardationFormat: TComboBox;
    comboDispersionFormat: TComboBox;
    comboParticlePrintFormat: TComboBox;
    lblMT3DSaveCond: TLabel;
    cbSaveConcAndDisc: TCheckBox;
    lblMT3DResultPrint: TLabel;
    comboResultsPrinted: TComboBox;
    lblMT3D_NPRS_N: TLabel;
    adeResultsPrintedN: TArgusDataEntry;
    sgPrintoutTimes: TStringGrid;
    lblMT3D_TIMPRS: TLabel;
    btmDeleteMT3DPrintTime: TButton;
    btmInsertMT3DPrintTime: TButton;
    btmAddMT3DPrintTime: TButton;
    gboxMT3DPackages: TGroupBox;
    lblMT3DBasic: TLabel;
    lblMT3DAdvec: TLabel;
    lblMT3DDisp: TLabel;
    lblSourceSink: TLabel;
    lblMT3DReact: TLabel;
    cbExportMT3DBTN: TCheckBox;
    cbExportMT3DADV: TCheckBox;
    cbExportMT3DDSP: TCheckBox;
    cbExportMT3DSSM: TCheckBox;
    cbExportMT3DRCT: TCheckBox;
    adeMT3DPath: TArgusDataEntry;
    rbRunMT3D: TRadioButton;
    rbCreateMT3D: TRadioButton;
    tabMT3DDisp: TTabSheet;
    gboxMT3DDispersion: TGroupBox;
    sgDispersion: TStringGrid;
    tabStrLake: TTabSheet;
    gbLake: TGroupBox;
    cbLAK: TCheckBox;
    lblLAK: TLabel;
    comboLAKSteady: TComboBox;
    adeMaxLakEquations: TArgusDataEntry;
    lblLakeEquationMax: TLabel;
    adeLakeNumSubSteps: TArgusDataEntry;
    lblLakeNumSubSteps: TLabel;
    adeMaxLakeStreams: TArgusDataEntry;
    lblLAKMaxLakeStream: TLabel;
    comboLakeBottomCond: TComboBox;
    lblLakeBottomCond: TLabel;
    comboLakeSideCond: TComboBox;
    lblLakeSideCond: TLabel;
    lblExportStream: TLabel;
    cbExpLak: TCheckBox;
    lblExportLake: TLabel;
    cbPrintLake: TCheckBox;
    rgMODFLOWVersion: TRadioGroup;
    cbExpLakFlow: TCheckBox;
    lblExpLakeFlow: TLabel;
    gboxMT3DBasic: TGroupBox;
    lblMT3DHeading1: TLabel;
    lblMT3DHeading2: TLabel;
    lblMT3DInactiveConc: TLabel;
    lblMT3DLengthUnit: TLabel;
    lblMT3DMassUnit: TLabel;
    lblMT3DAdvOpt: TLabel;
    lblMT3DDispOpt: TLabel;
    lblMT3DSourceSink: TLabel;
    lblMT3DChemReact: TLabel;
    lblMT3D_CINACT: TLabel;
    lblMT3D_LUNIT: TLabel;
    lblMT3D_MUNIT: TLabel;
    adeMT3DHeading1: TArgusDataEntry;
    adeMT3DHeading2: TArgusDataEntry;
    adeMT3DInactive: TArgusDataEntry;
    edMT3DLength: TEdit;
    edMT3DMass: TEdit;
    cbADV: TCheckBox;
    cbDSP: TCheckBox;
    cbSSM: TCheckBox;
    cbRCT: TCheckBox;
    cbMT3D: TCheckBox;
    cbSPG: TCheckBox;
    cbSPGRetain: TCheckBox;
    comboSpgSteady: TComboBox;
    cbAltSpg: TCheckBox;
    lblSeepage: TLabel;
    cbFlowSpg: TCheckBox;
    lblExpSeepageFlow: TLabel;
    cbExpSPG: TCheckBox;
    lblExportSeepage: TLabel;
    cbMT3D_TVC: TCheckBox;
    procedure FormCreate(Sender: TObject);  override;
    procedure edNumPerExit(Sender: TObject); override;
    procedure btnInsertTimeClick(Sender: TObject); override;
    procedure btnDeleteTimeClick(Sender: TObject); override;
    procedure UnitChange(Sender: TObject); virtual;
    procedure sgMT3DTimeSelectCell(Sender: TObject; Col, Row: Integer;
      var CanSelect: Boolean); virtual;
    procedure sgMT3DTimeSetEditText(Sender: TObject; ACol, ARow: Integer;
      const Value: String); virtual;
    procedure sgMT3DTimeDrawCell(Sender: TObject; Col, Row: Integer;
      Rect: TRect; State: TGridDrawState); virtual;
    procedure comboMT3DAdvSolSchemeChange(Sender: TObject); virtual;
    procedure comboMT3DInitPartPlaceChange(Sender: TObject); virtual;
    procedure comboMT3DInitPartSinkChoiceChange(Sender: TObject); virtual;
    procedure cbMT3DClick(Sender: TObject); virtual;
    procedure cbADVClick(Sender: TObject); virtual;
    procedure cbDSPClick(Sender: TObject); virtual;
    procedure cbRCHClick(Sender: TObject); override;
    procedure cbRIVClick(Sender: TObject); override;
    procedure cbWELClick(Sender: TObject); override;
    procedure cbDRNClick(Sender: TObject); override;
    procedure cbGHBClick(Sender: TObject); override;
    procedure cbEVTClick(Sender: TObject); override;
    procedure comboResultsPrintedChange(Sender: TObject); virtual;
    procedure cbPrintConcClick(Sender: TObject); virtual;
    procedure cbPrintRetardationClick(Sender: TObject); virtual;
    procedure cbPrintDispCoefClick(Sender: TObject); virtual;
    procedure cbPrintNumParticlesClick(Sender: TObject); virtual;
    procedure sgTimeSetEditText(Sender: TObject; ACol, ARow: Integer;
      const Value: String); override;
    procedure btnAddTimeClick(Sender: TObject); override;
    procedure edNumUnitsExit(Sender: TObject);  override;
    procedure btnDeleteUnitClick(Sender: TObject); override;
    procedure btnInsertUnitClick(Sender: TObject); override;
    procedure btnAddUnitClick(Sender: TObject); override;
    procedure dgGeolSetEditText(Sender: TObject; ACol, ARow: Integer;
      const Value: String); override;
    procedure sgReactionSelectCell(Sender: TObject; Col, Row: Integer;
      var CanSelect: Boolean); virtual;
    procedure sgReactionDrawCell(Sender: TObject; Col, Row: Integer;
      Rect: TRect; State: TGridDrawState); virtual;
    procedure comboMT3DIsothermChange(Sender: TObject); virtual;
    procedure comboMT3DIREACTChange(Sender: TObject); virtual;
    procedure cbRCTClick(Sender: TObject); virtual;
    procedure sgReactionSetEditText(Sender: TObject; ACol, ARow: Integer;
      const Value: String); virtual;
    procedure sgReactionExit(Sender: TObject); virtual;
    procedure sgMT3DTimeExit(Sender: TObject); virtual;
    procedure sgDispersionSelectCell(Sender: TObject; Col, Row: Integer;
      var CanSelect: Boolean); virtual;
    procedure sgDispersionSetEditText(Sender: TObject; ACol, ARow: Integer;
      const Value: String); virtual;
    procedure btmAddMT3DPrintTimeClick(Sender: TObject); virtual;
    procedure btmInsertMT3DPrintTimeClick(Sender: TObject); virtual;
    procedure btmDeleteMT3DPrintTimeClick(Sender: TObject); virtual;
    procedure sgPrintoutTimesSelectCell(Sender: TObject; Col, Row: Integer;
      var CanSelect: Boolean); virtual;
    procedure sgPrintoutTimesSetEditText(Sender: TObject; ACol,
      ARow: Integer; const Value: String); virtual;
    procedure sgDispersionExit(Sender: TObject); virtual;
    procedure sgPrintoutTimesExit(Sender: TObject);
    procedure cbLAKClick(Sender: TObject); virtual;
    procedure adeMaxLakeStreamsEnter(Sender: TObject); virtual;
    procedure adeMaxLakeStreamsExit(Sender: TObject); virtual;
    procedure adeMaxLakeStreamsChange(Sender: TObject); virtual;
    procedure adeMaxLakEquationsExit(Sender: TObject); virtual;
    procedure cbRBWSTRClick(Sender: TObject); virtual;
    procedure cbRBWUseTributariesClick(Sender: TObject); virtual;
    procedure cbRBWUseDiversionsClick(Sender: TObject); virtual;
    procedure cbRBWCalculateStageClick(Sender: TObject); virtual;
    function FormHelp(Command: Word; Data: Integer;
      var CallHelp: Boolean): Boolean; override;
    procedure comboTimeUnitsChange(Sender: TObject); override;
    procedure pageControlMainChange(Sender: TObject); override;
    procedure cbSTRClick(Sender: TObject); override;
    procedure btnOKClick(Sender: TObject); override;
    procedure cbSPGClick(Sender: TObject); virtual;
    procedure cbAltSpgClick(Sender: TObject); virtual;
    procedure cbSSMClick(Sender: TObject); virtual;
    procedure cbFHBClick(Sender: TObject); override;
    procedure cbMT3D_TVCClick(Sender: TObject); virtual;
  private
    { Private declarations }
  public
//    MFLayerStructure : TMT3DLayerStructure;
    PreviousMT3DTimeText : string;
    PreviousMT3DChemText : string;
    PreviousMT3DDispText : string;
    PreviousMT3DPrintoutTimeText : string;
    PreviousLakeStreamsText : string;
    procedure StreamWarning; override;
    procedure FhbWarning; virtual;
    procedure LakeWarning; virtual;
    procedure SeepageWarning; virtual;
    procedure ReadOldStreamPrint(var LineIndex: integer; FirstList, IgnoreList,
      DataToRead: TStringList; const VersionControl: TControl); virtual;
    procedure ReadOldLakeGeoData(var LineIndex : integer; FirstList, IgnoreList: TStringlist;
      DataToRead : TStringList; const VersionControl : TControl); virtual;
    procedure InitializeGrids ; override;
//    Procedure AssociateUnits; override;
//    Procedure AssociateTimes; override;
    Procedure InsertTimeParameters (Position : Integer) ; override;
//    procedure DeleteTimeParameters (Position : Integer); override;
//    procedure CreateGeologicLayer(Position : integer); override;
//    procedure DeleteGeologicLayer(Position : integer); override;
//    function MFLayerStructure : TLayerStructure; override;
    procedure EnableSSM; virtual;
//    procedure AssignHelpFile ; override;
    procedure ReadOldStream(var LineIndex : integer; FirstList, IgnoreList: TStringlist;
      DataToRead : TStringList; const VersionControl : TControl); virtual;
    procedure ReadOldStreamSteady(var LineIndex : integer; FirstList, IgnoreList: TStringlist;
      DataToRead : TStringList; const VersionControl : TControl); virtual;
    procedure ReadOldStreamTrib(var LineIndex : integer; FirstList, IgnoreList: TStringlist;
      DataToRead : TStringList; const VersionControl : TControl); virtual;
    procedure ReadOldStreamDiv(var LineIndex : integer; FirstList, IgnoreList: TStringlist;
      DataToRead : TStringList; const VersionControl : TControl); virtual;
    procedure ReadOldStreamICALC(var LineIndex : integer; FirstList, IgnoreList: TStringlist;
      DataToRead : TStringList; const VersionControl : TControl); virtual;
    procedure ReadOldStreamModelUnits(var LineIndex : integer; FirstList, IgnoreList: TStringlist;
      DataToRead : TStringList; const VersionControl : TControl); virtual;
    { Public declarations }
    procedure ModelComponentName(AStringList: TStringList); override;
  end;

type MT3DTimeData = (tdmN, tdmLength, tdmStepSize,tdmMaxSteps, tdmCalculated);
type MT3DDispersionData = (ddmN, ddmName, ddmHorDisp,ddmVertDisp, ddmMolDiffCoef);
type MT3DReactionData = (rdmN, rdmName, rdmBulkDensity,rdmSorpConst1,
     rdmSorpConst2, rdmRateConstDiss, rdmRateConstSorp);
type MT3DPrintoutTimes = (ptmN, ptmTime);

{type MT3DReactData = (rdmN, rdmName, rdmBulkDensity, rdmFirstSorb,
     rdmSecondSorb,   }


{var
  frmMT3D: TfrmMT3D; }

ResourceString
  rsTransStep = 'Transport step size (DTO)';
  rsMaxTransStep = 'Max. no. of transport steps (MXSTRN)';
  rsTranCalculated = 'Transport step size calculated (DTO)';
//  rsMT3DDllFileName = 'MT3DProject.dll';
  rsHorzDispRatio = 'Horz. Dispersivity Ratio (TRPT)';
  rsVertDispRatio = 'Vert. Dispersivity Ratio (TRPV)';
  rsMolDifCoef = 'Molecular Diffusion Coef. (DMCOEF)';
  rsBulkDensity = 'Bulk Density (RHOB)';
  rsSorpConst1 = '1''st Sorption Const. (SP1)';
  rsSorpConst2 = '2''nd Sorption Const. (SP2)';
  rsRateConstDis = 'Rate Const. Disolved (RC1)';
  rsRateConstSorb = 'Rate Const. Sorbed (RC2)';
  rsTime = 'Time';

implementation

{$R *.DFM}

uses ANE_LayerUnit, MT3DGrid, MFGrid, MT3DGeneralParameters,
     MFMOCObsWell, Variables, UtilityFunctions, MFRBWLake, {MFRBWStreamUnit,}
     ArgusFormUnit;

{procedure TfrmMT3D.AssignHelpFile(HelpFileName : string) ;
var
    DllDirectory : String;
begin
  if GetDllDirectory(DLLName, DllDirectory )
  then
    begin
      HelpFile := DllDirectory + '\' + HelpFileName;
    end
  else
    begin
      ShowMessage(DLLName + ' not found.');
    end;
end;   }

{function TfrmMT3D.MFLayerStructure : TLayerStructure;
begin
  result := MFLayerStructure ;
end;  }

{Procedure TfrmMT3D.AssociateUnits;
var
  GeolUnitIndex : Integer;
  AGeologicUnit : TMT3DGeologicUnit;
  ListOfParameterLists, AParameterList : TList;
  ParameterListIndex, ParameterIndex : integer;
  AParamList : T_ANE_IndexedParameterList;
begin
  for GeolUnitIndex := 0 to MFLayerStructure.ListsOfIndexedLayers.Count -1 do
  begin
    AGeologicUnit := MFLayerStructure.ListsOfIndexedLayers.GetNonDeletedIndLayerListByIndex(GeolUnitIndex)
      as TMT3DGeologicUnit;
    sgcUnits.Objects[0, GeolUnitIndex + 1] := AGeologicUnit;
  end;
  ListOfParameterLists
    := MFLayerStructure.MakeParameter1Lists(StrToInt(edNumUnits.Text));
  for ParameterListIndex := 0 to ListOfParameterLists.Count -1 do
  begin
    AParameterList := ListOfParameterLists.Items[ParameterListIndex];
    sgcUnits.Objects[1, ParameterListIndex+1] := AParameterList;
    if (ParameterListIndex < MaxObsWellLayers) then
    begin
      for ParameterIndex := 0 to AParameterList.Count -1 do
      begin
        AParamList := AParameterList.Items[ParameterIndex];
        if (AParamList is ModflowTypes.GetMOCElevParamListType) then
        begin
          AParameterList.Delete(ParameterIndex);
          break;
        end;
      end;
    end;
  end;
  ListOfParameterLists.Free;
end;  } 


Procedure TfrmMT3D.InsertTimeParameters (Position : integer) ;
begin
  inherited;
{    if cbRCH.Checked then
    begin
      MFLayerStructure.UnIndexedLayers.MakeIndexedList2(
        ModflowTypes.GetRechargeLayerType,
        ModflowTypes.GetMFRechElevParamListType, Position);
    end;
    if cbRCH.Checked and cbMOC3D.Checked then
    begin
      MFLayerStructure.UnIndexedLayers.MakeIndexedList2(
        ModflowTypes.GetMOCRechargeConcLayerType,
        ModflowTypes.GetMOCRechargeConcTimeParamListType, Position);
    end;
    if cbEVT.Checked then
    begin
      MFLayerStructure.UnIndexedLayers.MakeIndexedList2(
        ModflowTypes.GetETLayerType, ModflowTypes.GetETTimeParamListType, Position);
    end;
    if cbWEL.Checked then
    begin
      MFLayerStructure.ListsOfIndexedLayers.MakeIndexedList2(
        ModflowTypes.GetMFWellLayerType, ModflowTypes.GetMFWellTimeParamListType, Position);
    end;
    if cbWEL.Checked then
    begin
      MFLayerStructure.ListsOfIndexedLayers.MakeIndexedList2(
        ModflowTypes.GetMFWellLayerType, ModflowTypes.GetMFWellTimeParamListType, Position);
    end;
    if cbRIV.Checked then
    begin
      MFLayerStructure.ListsOfIndexedLayers.MakeIndexedList2(
        ModflowTypes.GetMFLineRiverLayerType, ModflowTypes.GetMFRiverTimeParamListType, Position);
      MFLayerStructure.ListsOfIndexedLayers.MakeIndexedList2(
        ModflowTypes.GetMFAreaRiverLayerType, ModflowTypes.GetMFRiverTimeParamListType, Position);
    end;
    if cbDRN.Checked then
    begin
      MFLayerStructure.ListsOfIndexedLayers.MakeIndexedList2(
        ModflowTypes.GetLineDrainLayerType, ModflowTypes.GetMFDrainTimeParamListType, Position);
      MFLayerStructure.ListsOfIndexedLayers.MakeIndexedList2(
        ModflowTypes.GetAreaDrainLayerType, ModflowTypes.GetMFDrainTimeParamListType, Position);
    end;
    if cbGHB.Checked then
    begin
      MFLayerStructure.ListsOfIndexedLayers.MakeIndexedList2(
        ModflowTypes.GetPointGHBLayerType, ModflowTypes.GetGHBTimeParamListType, Position);
      MFLayerStructure.ListsOfIndexedLayers.MakeIndexedList2(
        ModflowTypes.GetLineGHBLayerType, ModflowTypes.GetGHBTimeParamListType, Position);
      MFLayerStructure.ListsOfIndexedLayers.MakeIndexedList2(
        ModflowTypes.GetAreaGHBLayerType, ModflowTypes.GetGHBTimeParamListType, Position);
    end;   }
    if cbLAK.Checked then
    begin
      MFLayerStructure.ListsOfIndexedLayers.MakeIndexedList2(
        ModflowTypes.GetMFLakeLayerType, ModflowTypes.GetMFLakeTimeParamListType, Position);
    end;
    if cbSPG.Checked then
    begin
      MFLayerStructure.ListsOfIndexedLayers.MakeIndexedList2(
        ModflowTypes.GetMFLineSeepageLayerType,
        ModflowTypes.GetMFSeepageTimeParamListType, Position);
      MFLayerStructure.ListsOfIndexedLayers.MakeIndexedList2(
        ModflowTypes.GetMFAreaSeepageLayerType,
        ModflowTypes.GetMFSeepageTimeParamListType, Position);
    end;
    if cbMT3D.Checked and cbSSM.Checked then
    begin
      MFLayerStructure.ListsOfIndexedLayers.MakeIndexedList2(
        ModflowTypes.GetPrescribedHeadLayerType,
        ModflowTypes.GetMT3DPrescribedHeadTimeParamListType, Position);
      if cbMT3D_TVC.Checked then
      begin
        MFLayerStructure.ListsOfIndexedLayers.MakeIndexedList2(
          ModflowTypes.GetMT3DPointTimeVaryConcLayerType,
          ModflowTypes.GetMT3DPointTimeVaryConcTimeParamListType, Position);
        MFLayerStructure.ListsOfIndexedLayers.MakeIndexedList2(
          ModflowTypes.GetMT3DAreaTimeVaryConcLayerType,
          ModflowTypes.GetMT3DAreaTimeVaryConcTimeParamListType, Position);
      end;
    end;
end;


{procedure TfrmMT3D.CreateGeologicLayer(Position : integer);
var
  AMFGridLayer : TMFGridLayer;
begin
  ModflowTypes.GetGeologicUnitType.Create
    (MFLayerStructure.ListsOfIndexedLayers, Position);

  AMFGridLayer := MFLayerStructure.UnIndexedLayers.GetLayerByName
    (ModflowTypes.GetGridLayerType.ANE_LayerName) as ModflowTypes.GetGridLayerType;

  ModflowTypes.GetMFGeologicUnitParametersType.Create
    (AMFGridLayer.IndexedParamList1, Position);
end; }

{procedure TfrmMT3D.DeleteGeologicLayer(Position : integer);
var
  UnitParamIndex : integer;
  AGeologicUnitParameters : TGeologicUnitParameters;
  AGeologicUnit : TMT3DGeologicUnit;
  AUnitParamList : TList;
//  AGeologicUnitParametersClass : TMFGeologicUnitParametersClass;
begin
  AGeologicUnit := sgcUnits.Objects[0,Position] as ModflowTypes.GetMT3DGeologicUnitType;
  AGeologicUnit.DeleteSelf;
  sgcUnits.Objects[0,Position] := nil;

  AUnitParamList := sgcUnits.Objects[1,Position] as TList;
  for UnitParamIndex := AUnitParamList.Count -1 downto 0 do
  begin
    AGeologicUnitParameters := AUnitParamList.Items[UnitParamIndex];
    AGeologicUnitParameters.DeleteSelf;
//    AGeologicUnitParametersClass := GetMFGeologicUnitParametersType;
//    (AUnitParamList.Items[UnitParamIndex] as AGeologicUnitParametersClass).DeleteSelf
  end;
  AUnitParamList.Free;
  sgcUnits.Objects[1,Position] := nil;
end;  }


procedure TfrmMT3D.InitializeGrids;
var
  RowIndex : integer;
begin
  inherited InitializeGrids;

  sgMT3DTime.Cells[Ord(tdmN),0] := rsN;
  sgMT3DTime.Cells[Ord(tdmLength),0] := rsLength;
  sgMT3DTime.Cells[Ord(tdmStepSize),0] := rsTransStep;
  sgMT3DTime.Cells[Ord(tdmMaxSteps),0] := rsMaxTransStep;
  sgMT3DTime.Cells[Ord(tdmCalculated),0] := rsTranCalculated;

  for RowIndex := 1 to sgMT3DTime.RowCount - 1 do
  begin
    sgMT3DTime.Cells[Ord(tdmN),RowIndex] := IntToStr(RowIndex);
  end;


  sgDispersion.RowCount :=  dgGeol.RowCount;
  sgReaction.RowCount :=  dgGeol.RowCount;

  sgDispersion.Cells[Ord(ddmN),0] := rsN;
  sgDispersion.Cells[Ord(ddmName),0] := rsName;
  sgDispersion.Cells[Ord(ddmHorDisp),0] := rsHorzDispRatio;
  sgDispersion.Cells[Ord(ddmVertDisp),0] := rsVertDispRatio;
  sgDispersion.Cells[Ord(ddmMolDiffCoef),0] := rsMolDifCoef;

  for RowIndex := 1 to sgDispersion.RowCount - 1 do
  begin
    sgDispersion.Cells[Ord(ddmN),RowIndex] := IntToStr(RowIndex);
    sgDispersion.Cells[Ord(ddmName),RowIndex] := dgGeol.Cells[Ord(nuiName),RowIndex]
  end;

  sgReaction.Cells[Ord(rdmN),0] := rsN;
  sgReaction.Cells[Ord(ddmName),0] := rsName;
  sgReaction.Cells[Ord(rdmBulkDensity),0] := rsBulkDensity;
  sgReaction.Cells[Ord(rdmSorpConst1),0] := rsSorpConst1;
  sgReaction.Cells[Ord(rdmSorpConst2),0] := rsSorpConst2;
  sgReaction.Cells[Ord(rdmRateConstDiss),0] := rsRateConstDis;
  sgReaction.Cells[Ord(rdmRateConstSorp),0] := rsRateConstSorb;

  for RowIndex := 1 to sgReaction.RowCount - 1 do
  begin
    sgReaction.Cells[Ord(rdmN),RowIndex] := IntToStr(RowIndex);
    sgReaction.Cells[Ord(rdmName),RowIndex] := dgGeol.Cells[Ord(nuiName),RowIndex]
  end;

//  rsTime = 'Time';
//type MT3DPrintoutTimes = (ptmN, ptmTime);
  sgPrintoutTimes.Cells[Ord(ptmN),0] := rsN;
  sgPrintoutTimes.Cells[Ord(ptmTime),0] := rsTime;
  for RowIndex := 1 to sgPrintoutTimes.RowCount - 1 do
  begin
    sgPrintoutTimes.Cells[Ord(ptmN),RowIndex] := IntToStr(RowIndex);
  end;

//  sgReaction.Cells[
end;

procedure TfrmMT3D.EnableSSM;
begin
  if cbRCH.Checked or cbRIV.Checked or cbWEL.Checked or cbDRN.Checked
     or cbGHB.Checked or cbEVT.Checked or cbSTR.Checked
  then
    begin
      cbSSM.Checked;
      cbSSM.Enabled := False;
    end
  else
    begin
      cbSSM.Enabled := True;
    end;
end;

procedure TfrmMT3D.FormCreate(Sender: TObject);
var
  RowIndex : integer;
  OldGeolContGrid : TSpecialHandlingObject;

  OldStream : TSpecialHandlingObject;
  OldStreamDiv : TSpecialHandlingObject;
  OldStreamICALC : TSpecialHandlingObject;
  OldStreamModelUnits : TSpecialHandlingObject;
  OldStreamSteady : TSpecialHandlingObject;
  OldStreamTrib : TSpecialHandlingObject;
  OldStreamPrintFlows : TSpecialHandlingObject;
begin
  inherited;

  OldGeolContGrid := TSpecialHandlingObject.Create('sgcUnits',ReadOldLakeGeoData);
  SpecialHandlingList.Add(OldGeolContGrid);

  OldStream := TSpecialHandlingObject.Create('cbRBWSTR',ReadOldStream);
  SpecialHandlingList.Add(OldStream);

  OldStreamDiv := TSpecialHandlingObject.Create('cbRBWUseDiversions',ReadOldStreamDiv);
  SpecialHandlingList.Add(OldStreamDiv);

  OldStreamICALC := TSpecialHandlingObject.Create('cbRBWCalculateStage',ReadOldStreamICALC);
  SpecialHandlingList.Add(OldStreamICALC);

  OldStreamModelUnits := TSpecialHandlingObject.Create('comboRBWStreamModelLength',ReadOldStreamModelUnits);
  SpecialHandlingList.Add(OldStreamModelUnits);

  OldStreamSteady := TSpecialHandlingObject.Create('comboRBWSTRSteady',ReadOldStreamSteady);
  SpecialHandlingList.Add(OldStreamSteady);

  OldStreamTrib := TSpecialHandlingObject.Create('cbRBWUseTributaries',ReadOldStreamTrib);
  SpecialHandlingList.Add(OldStreamTrib);

  OldStreamPrintFlows := TSpecialHandlingObject.Create('cbExpStrFlow',ReadOldStreamPrint);
  SpecialHandlingList.Add(OldStreamPrintFlows);

  FirstList.Add('cbLAK');
  FirstList.Add('adeMaxLakeStreams');

  IgnoreList.Add('rbRunMT3D');
  IgnoreList.Add('rbCreateMT3D');
  IgnoreList.Add('cbExpStr');
  IgnoreList.Add('cbExpLak');
  IgnoreList.Add('cbExportMT3DBTN');
  IgnoreList.Add('cbExportMT3DADV');
  IgnoreList.Add('cbExportMT3DDSP');
  IgnoreList.Add('cbExportMT3DSSM');
  IgnoreList.Add('cbExportMT3DRCT');
  IgnoreList.Add('rgMODFLOWVersion');
  IgnoreList.Add('cbExpSPG');

  for RowIndex := 1 to sgMT3DTime.RowCount - 1 do
  begin
    sgMT3DTime.Cells[Ord(tdmLength), RowIndex]
      := sgTime.Cells[Ord(tdLength), RowIndex];
    sgMT3DTime.Cells[Ord(tdmStepSize), RowIndex] := '1';
    sgMT3DTime.Cells[Ord(tdmMaxSteps), RowIndex] := '1000';
    sgMT3DTime.Cells[Ord(tdmCalculated), RowIndex] := 'Yes';
  end;    

{type MT3DDispersionData = (ddmN, ddmName, ddmHorDisp,ddmVertDisp, ddmMolDiffCoef);
type MT3DReactionData = (rdmN, rdmName, rdmBulkDensity,rdmSorpConst1,
     rdmSorpConst2, rdmRateConstDiss, rdmRateConstSorp);
type MT3DPrintoutTimes = (ptmN, ptmTime);
}
  for RowIndex := 1 to sgReaction.RowCount - 1 do
  begin
    sgReaction.Cells[Ord(rdmBulkDensity), RowIndex] := '0.3';
    sgReaction.Cells[Ord(rdmSorpConst1), RowIndex] := '1';
    sgReaction.Cells[Ord(rdmSorpConst2), RowIndex] := '1';
    sgReaction.Cells[Ord(rdmRateConstDiss), RowIndex] := '1e-006';
    sgReaction.Cells[Ord(rdmRateConstSorp), RowIndex] := '1e-006';
  end;
  for RowIndex := 1 to sgDispersion.RowCount - 1 do
  begin
    sgDispersion.Cells[Ord(ddmHorDisp), RowIndex] := '0.2';
    sgDispersion.Cells[Ord(ddmVertDisp), RowIndex] := '0.2';
    sgDispersion.Cells[Ord(ddmMolDiffCoef), RowIndex] := '0';
  end;
  for RowIndex := 1 to sgPrintoutTimes.RowCount - 1 do
  begin
    sgPrintoutTimes.Cells[Ord(ptmTime), RowIndex] := '0';
  end;
  comboMT3DAdvSolScheme.ItemIndex := 3;
  comboMT3DParticleTrackingAlg.ItemIndex := 2;
  comboMT3DInitPartPlace.ItemIndex := 0;
  comboMT3DInitPartSinkChoice.ItemIndex := 0;
  comboMT3DIsotherm.ItemIndex := 1;
  comboMT3DIREACT.ItemIndex := 0;
  comboPrintoutFormat.ItemIndex := 1;
  comboConcentrationFormat.ItemIndex := 0;
  comboRetardationFormat.ItemIndex := 0;
  comboDispersionFormat.ItemIndex := 0;
  comboParticlePrintFormat.ItemIndex := 1;
  comboResultsPrinted.ItemIndex := 1;
  comboLAKSteady.ItemIndex := 1;
  comboLakeBottomCond.ItemIndex := 0;
  comboLakeSideCond.ItemIndex := 1;
  comboSpgSteady.ItemIndex := 1;
end;

procedure TfrmMT3D.edNumPerExit(Sender: TObject);
var
  NewNumPeriods : integer;
  RowIndex, ColIndex : integer;
begin
//  if Sender = edNumPer then
//  begin
    inherited;
//  end;
  NewNumPeriods := StrToInt(edNumPer.Text);
  If NewNumPeriods > PrevNumPeriods
  then
  begin
    sgMT3DTime.RowCount := NewNumPeriods + 1;
    For RowIndex := PrevNumPeriods + 1 to sgMT3DTime.RowCount -1 do
    begin
      sgMT3DTime.Cells[Ord(tdN),RowIndex] := IntToStr(RowIndex);
      For ColIndex := 1 to sgMT3DTime.ColCount -1 do
      begin
        sgMT3DTime.Cells[ColIndex,RowIndex]
          := sgMT3DTime.Cells[ColIndex,RowIndex-1];
      end;
    end;
  end
  else
  begin
    sgMT3DTime.RowCount := NewNumPeriods + 1;
  end;

end;

procedure TfrmMT3D.btnInsertTimeClick(Sender: TObject);
var
  CurrentRow : integer;
  RowIndex, ColIndex : integer;
begin
  inherited;
//  edNumPerExit(Sender);
  CurrentRow := sgTime.Selection.Top;
  for RowIndex := sgMT3DTime.RowCount -2 downto CurrentRow do
  begin
    sgMT3DTime.Cells[0,RowIndex] := IntToStr(RowIndex);
    for ColIndex := 1 to sgMT3DTime.ColCount -1 do
    begin
      sgMT3DTime.Cells[ColIndex,RowIndex +1] := sgMT3DTime.Cells[ColIndex,RowIndex];
    end;
  end;

end;

procedure TfrmMT3D.btnDeleteTimeClick(Sender: TObject);
Var
  CurrrentRow : integer;
  RowIndex, ColIndex : integer;
begin
  inherited;
//  edNumPerExit(Sender);
  CurrrentRow := sgTime.Selection.Top;
  for RowIndex := CurrrentRow +1 to sgMT3DTime.RowCount -1 do
  begin
    For ColIndex := 1 to sgMT3DTime.ColCount -1 do
    begin
      sgMT3DTime.Cells[ColIndex,RowIndex-1] := sgMT3DTime.Cells[ColIndex,RowIndex];
    end;
  end;

end;

procedure TfrmMT3D.UnitChange(Sender: TObject);
var
  AnEdit : TEdit;
begin
  inherited;
  AnEdit := Sender as TEdit;
  if Length(AnEdit.Text) > 4 then
  begin
    AnEdit.Text := Copy(AnEdit.Text, 1, 4);
  end;  
end;

procedure TfrmMT3D.sgMT3DTimeSelectCell(Sender: TObject; Col, Row: Integer;
  var CanSelect: Boolean);
begin
  inherited;
  if Col = Ord(tdmLength) then
  begin
    CanSelect := False;
  end;
  PreviousMT3DTimeText := sgMT3DTime.Cells[Col, Row];
  if Col = Ord(tdmStepSize) then
    begin
      if sgMT3DTime.Cells[Ord(tdmCalculated),Row] = 'Yes'
      then
        begin
          sgMT3DTime.Options := sgMT3DTime.Options - [goEditing];
        end
      else
        begin
          sgMT3DTime.Options := sgMT3DTime.Options + [goEditing];
        end;
    end
  else if Col = Ord(tdmMaxSteps) then
    begin
      sgMT3DTime.Options := sgMT3DTime.Options + [goEditing];
    end
  else if Col = Ord(tdmCalculated) then
    begin
      sgMT3DTime.Options := sgMT3DTime.Options - [goEditing];
      if sgMT3DTime.Cells[Ord(tdmCalculated),Row] = 'Yes'
      then
        begin
          sgMT3DTime.Cells[Ord(tdmCalculated),Row] := 'No';
        end
      else
        begin
          sgMT3DTime.Cells[Ord(tdmCalculated),Row] := 'Yes';
        end;