# 
Define Variable: TempVar [Integer]
# Template modified from:
# MODFLOW Export Template Version 1.4 July 2, 1997
# 
# Modifed by Argus Interware, July 21, 1998
# Changes made by Argus Interware are marked by the initials YBI or RBW.
# 

# Changes on July 21, 1998
# Corrections to export of the MT3D Source and Sink mixing package.
# #
# Modifed by Argus Interware, Mar. 26, 1998
# Increased export speed for cases where there are many points on the elevation contours.
# Added progress bar.
# 
# Modifed by Argus Interware, Mar. 10, 1998
# Changes made by Argus Interware are marked by the initials YBI or RBW.
# 
# Changes on Mar. 10, 1998.
# Corrections to export of the MT3D Source and Sink mixing package.
# 
# Changes on Mar. 9, 1998:
# Additional error checking in drain, river and general-head boundary
# packages. Fixed GHB, Riv and Well packages to deal with nested closed contours.
# 
# Changes on Mar. 6, 1998:
# Export of Drain Package changed to account for drains, rivers,
# and general-head boundaries
# that touch the edge of blocks but do not go inside.
# Export of the General Head Boundary Package modified to accound
# for cases where the conductance is set on the layer dialog box.
# 
# Changes on Jan. 16, 1998:
# Export formats of real numbers in solver
# packages changed to allow more precision.
# 
# Modified to Export MT3D Input Files by Richard B. Winston
# 
# New Variables, RBW 8/4/98
Define Variable: ShowWarnings [Boolean]
# New Variables, RBW 7/22/98
Define Variable: BoundaryInBlock [Boolean]
Define Variable: PointsEmpty [Boolean]
Define Variable: NSS [Integer]
Define Variable: MXSS [Integer]
Define Variable: CalcElev [Boolean]
Define Variable: AreaBoundaryInBlock [Boolean]
Define Variable: SteadyGHB [Integer]
Set Variable: SteadyGHB:= @comboGhbSteady@
Define Variable: SteadyRiver [Integer]
Set Variable: SteadyRiver:= @comboRivSteady@
Define Variable: SteadyDrain [Integer]
Set Variable: SteadyDrain:= @comboDrnSteady@
Define Variable: SteadyWell [Integer]
Set Variable: SteadyWell:= @comboWelSteady@
Define Variable: ThisConductance [Real]
Define Variable: SegmentLength [Real]
Define Variable: LayconArray [Integer]
Define Variable: StepIndex [Integer]
Define Variable: ConcentrationList [Integer]
Define Variable: CurrentWellCount [Integer]
Define Variable: CurrentSpecifiedWellCount [Integer]
Define Variable: MaxWells [Integer]
Define Variable: CurrentDrainCount [Integer]
Define Variable: CurrentSpecifiedDrainCount [Integer]
Define Variable: MaxDrains [Integer]
Define Variable: CurrentRiverCount [Integer]
Define Variable: CurrentSpecifiedRiverCount [Integer]
Define Variable: MaxRivers [Integer]
Define Variable: CurrentGHBCount [Integer]
Define Variable: CurrentSpecifiedGHBCount [Integer]
Define Variable: MaxGHBs [Integer]
Define Variable: CurrentConstantHeadCount [Integer]
Define Variable: CurrentSpecifiedConstantHeadCount [Integer]
Define Variable: MaxConstantHead [Integer]
Define Variable: CurrentTimeVaryingConcCount [Integer]
Define Variable: CurrentSpecifiedTimeVaryingConcCount [Integer]
Define Variable: MaxTimeVaryingConc [Integer]
Define Variable: TopElevationList [Integer]
Define Variable: BottomElevationList [Real]
Define Variable: ThicknessList [Integer]
Define Variable: CellThickness [Real]
Define Variable: LayerThickness [Real]
Define Variable: LayerTop [Real]
Define Variable: LayerBottom [Real]
Define Variable: ThisElevation [Real]
Define Variable: ProgressMax [Integer]
Define Variable: ThisBlockArea [Real]
Define Variable: ThisConcentration [Real]
Define Variable: PointLayerIsEmpty [Boolean]
Define Variable: LineLayerIsEmpty [Boolean]
Define Variable: AreaLayerIsEmpty [Boolean]
# End New Variables, RBW 7/22/98
# 
# Define variable MT3DLayerLines which will hold the
# number of lines required to hold the
Define Variable: MT3DLayerLines [Integer]
# 
# Define variable MT3DNOBS which will hold the number of observations in MT3D.
Define Variable: MT3DNOBS [Integer]
# 
# Define variable MT3DCH which will hold the number of constant head cells.
Define Variable: MT3DCH [Integer]
# 
# Define Variable MT3DTimVarConc which will be the number of time-varying concentrations
Define Variable: MT3DTimVarConc [Integer]
# 
# Defined Variable LayIndex which will serve as an index to the unit number in the MT3D template
Define Variable: LayIndex [Integer]
# 
# Defined Variable PeriodIndex which will serve as an index to the stress period in the MT3D template
Define Variable: PeriodIndex [Integer]
# 
# Define Variable MT3DConstHead which will serve to indicate whether a cell is a constant head cell with a specified concentration.
Define Variable: MT3DConstHead [Integer]
# 
# Define Variable MT3DCHVal which will hold the concentration in the constant head cell.
Define Variable: MT3DCHVal [Real]
# 
# Define LayerCount which will be the MODFLOW Layer in the MT3D export template
Define Variable: LayerCount [Integer]
# 
# Define DivIndex which wlll be the index to the number of divisions of a unit into MODFLOW layers.
Define Variable: DivIndex [Integer]
# 
# Define Variable LayerBot which is the bottom of the current MODFLOW layer
Define Variable: LayerBot [Real]
# 
# Define root filename for MODFLOW files:
Define Variable: FileName [String]
# 
# Define variable for exporting MODFLOW input files.
# Define Variable: ExportMODFLOW [Integer]
# 
# Define variables for exporting MT3D packages
Define Variable: ExportMT3D_ADV [Integer]
Define Variable: ExportMT3D_BTN [Integer]
Define Variable: ExportMT3D_DSP [Integer]
Define Variable: ExportMT3D_RCT [Integer]
Define Variable: ExportMT3D_SSM [Integer]
# 
# Set variables for exporting MT3D packages
Set Variable: ExportMT3D_ADV:= @cbExportMT3DADV@
Set Variable: ExportMT3D_BTN:= @cbExportMT3DBTN@
Set Variable: ExportMT3D_DSP:= @cbExportMT3DDSP@
Set Variable: ExportMT3D_RCT:= @cbExportMT3DRCT@
Set Variable: ExportMT3D_SSM:= @cbExportMT3DSSM@
# 
# Define error flags
Define Variable: err_riv_3 [Integer]
Define Variable: err_riv_4 [Integer]
Define Variable: err_drn_3 [Integer]
Define Variable: err_drn_4 [Integer]
# 
# Initialize Error flags
Set Variable: err_riv_3:= 0
Set Variable: err_riv_4:= 0
Set Variable: err_drn_3:= 0
Set Variable: err_drn_4:= 0
# 
Define Variable: ITMUNI [Integer]
# 
# Define flags for stress packages (0 = package is NOT executed, 1 = package is executed):
Define Variable: WellChoice [Integer]
Define Variable: RechargeChoice [Integer]
Define Variable: DrainChoice [Integer]
Define Variable: RiverChoice [Integer]
Define Variable: EvapotranspirationChoice [Integer]
Define Variable: GeneralHeadChoice [Integer]
# 
# Define total number of model layers
Define Variable: NumLay [Integer]
# 
# Define number of geologic units in simulation
Define Variable: TopSimul [Integer]
Define Variable: BotSimul [Integer]
# 
# Define dummy variables for looping and checking
Define Variable: i [Integer]
Define Variable: j [Integer]
Define Variable: k [Integer]
Define Variable: n [Integer]
Define Variable: ocflag [Integer]
Define Variable: M [Integer]
Define Variable: TempValue1 [Real]
Define Variable: TempValue2 [Real]
Define Variable: TempValue3 [Real]
Define Variable: TempValue4 [Real]
Define Variable: WD [Real]
Define Variable: WT [Real]
Define Variable: WB [Real]
Define Variable: TML [Real]
Define Variable: BML [Real]
# 
# added on June 16, 1997
Define Variable: L [Integer]
Define Variable: Lay_Flag [Integer]
Define Variable: Block_Num [Integer]
Define Variable: Block_Flag [Integer]
Define Variable: ok [Integer]
Define Variable: Test [Real]
# 
Define Variable: WEL_MXWELL [Integer]
Define Variable: DumRow [Integer]
Define Variable: DumCol [Integer]
Define Variable: DumLay [Integer]
# RBW New Code 3/26/98
Define Variable: DumThickness [Real]
Define Variable: BlockCount [Integer]
Define Variable: ColumnCount [Integer]
# RBW End New Code 3/26/98
# 
# Define Variable: RunMODFLOW [Integer]
# 
# RBW New Code 8/4/99
Set Variable: ShowWarnings:= @cbShowWarnings@
# RBW End New Code 8/4/99
Set Variable: FileName:= "@adeFileName@"
# 
# Set Variable: Heading1:= "@HEADING1@"
# Set Variable: Heading2:= "@HEADING2@"
# 
Set Variable: NumLay:= 0
Loop for: Variable LayIndex from: 1 to: MODFLOW_NLAY() step: 1
	Set Variable: NumLay:= NumLay+MODFLOW_SIMUL(LayIndex)*MODFLOW_NDIV(LayIndex)
End loop
# 
Set Variable: ITMUNI:= @comboTimeUnits@
# Set variables for choice of stress packages and output control:
# 
Set Variable: WellChoice:= @cbWEL@
Set Variable: RechargeChoice:= @cbRCH@
Set Variable: DrainChoice:= @cbDRN@
Set Variable: RiverChoice:= @cbRIV@
Set Variable: EvapotranspirationChoice:= @cbEVT@
Set Variable: GeneralHeadChoice:= @cbGHB@
# MOC3D
# 
Set Variable: TopSimul:= 0
Set Variable: BotSimul:= 0
# Stream package variables
Define Variable: StreamChoice [Boolean]
Set Variable: StreamChoice:= @cbSTR@&@cbSTRRetain@
Define Variable: ExportStreams [Boolean]
Set Variable: ExportStreams:= @cbExpStr@
Define Variable: ElevationAboveTopError [Boolean]
Define Variable: ElevationBelowBottomError [Boolean]
Define Variable: TributaryMaxAllowed [Integer]
Define Variable: StreamSegmentCount [Integer]
Define Variable: StreamSegmentList [Integer]
Define Variable: SortedStreamSegmentList [Integer]
Define Variable: StreamUnitList [Integer]
Define Variable: StreamTributaryList [Integer]
Define Variable: StreamIndex [Integer]
Define Variable: StreamIndex2 [Real]
Define Variable: Tributary2DArray [Integer]
Define Variable: TributaryIndex [Integer]
Define Variable: TributaryCount [Integer]
Define Variable: not_ok [Boolean]
Define Variable: StreamsSteady [Boolean]
Set Variable: StreamsSteady:= !@comboStreamOption@
Define Variable: StreamTop [Real]
Define Variable: DownstreamStreamTop [Real]
Define Variable: StreamBottom [Real]
Define Variable: DownstreamStreamBottom [Real]
Define Variable: StreamStage [Real]
Define Variable: DownstreamStreamStage [Real]
Define Variable: StreamConductance [Real]
Define Variable: Width [Real]
Define Variable: DownstreamWidth [Real]
Define Variable: ICALC [Integer]
Set Variable: ICALC:= @cbStreamCalcFlow@
Define Variable: UseTributaries [Boolean]
Set Variable: UseTributaries:= @cbStreamTrib@
Define Variable: UseDiversions [Boolean]
Set Variable: UseDiversions:= @cbStreamDiversions@
Set Variable: StreamSegmentList:= MODFLOW_L_CreateNewList()
Set Variable: SortedStreamSegmentList:= MODFLOW_L_CreateNewList()
Set Variable: StreamTributaryList:= MODFLOW_L_CreateNewList()
Set Variable: TributaryMaxAllowed:= 10
Set Variable: StreamUnitList:= MODFLOW_L_CreateNewList()
Define Variable: StreamProperties3DArray [Integer]
Define Variable: CurrentStream [Integer]
Define Variable: BlockIndex [Integer]
Define Variable: BlockListCount [Integer]
Define Variable: BlockTop [Real]
Define Variable: BlockBottom [Real]
Define Variable: StreamUnit [Integer]
Define Variable: CurrentStreamReachCount [Integer]
Define Variable: MaxStreamReachCount [Integer]
Define Variable: ISTCB1 [Integer]
Set Variable: ISTCB1:= @cbFlowSTR@
Define Variable: ISTCB2 [Integer]
Set Variable: ISTCB2:= @cbFlowSTR2@
Define Variable: NTRIB [Integer]
Define Variable: NTRIBCurrent [Integer]
Define Variable: NDIV [Integer]
# ModelLengthUnits = 0 -> m
# ModelLengthUnits = 1 -> ft
Define Variable: ModelLengthUnits [Integer]
Set Variable: ModelLengthUnits:= @comboModelUnits@
Define Variable: StreamCONST [Real]
Set Variable: StreamCONST:= 1
If: ICALC&StreamChoice
	If: ITMUNI=0
		Alert: "Error: You must specify the time unit to calculate the stage height in the stream package. Check the Time Tab of the Edit Project Info Dialog box."
	End if
	If: ITMUNI=1
		If: ModelLengthUnits
			Set Variable: StreamCONST:= 1.486
		Else
			Set Variable: StreamCONST:= 1
		End if
	End if
	If: ITMUNI=2
		If: ModelLengthUnits
			Set Variable: StreamCONST:= 89.16
		Else
			Set Variable: StreamCONST:= 60
		End if
	End if
	If: ITMUNI=3
		If: ModelLengthUnits
			Set Variable: StreamCONST:= 5349.6
		Else
			Set Variable: StreamCONST:= 3600
		End if
	End if
	If: ITMUNI=4
		If: ModelLengthUnits
			Set Variable: StreamCONST:= 128390.4
		Else
			Set Variable: StreamCONST:= 86400
		End if
	End if
	If: ITMUNI=5
		If: ModelLengthUnits
			Set Variable: StreamCONST:= 46784593
		Else
			Set Variable: StreamCONST:= 31447600
		End if
	End if
End if
Define Variable: FlowIndex [Integer]
Set Variable: FlowIndex:= 0
Define Variable: UpstreamStageIndex [Integer]
Set Variable: UpstreamStageIndex:= 1
Define Variable: DownstreamStageIndex [Integer]
Set Variable: DownstreamStageIndex:= 2
Define Variable: ConductivityIndex [Integer]
Set Variable: ConductivityIndex:= 3
Define Variable: UpstreamTopElevIndex [Integer]
Set Variable: UpstreamTopElevIndex:= 4
Define Variable: DownstreamTopElevIndex [Integer]
Set Variable: DownstreamTopElevIndex:= 5
Define Variable: UpstreamBotElevIndex [Integer]
Set Variable: UpstreamBotElevIndex:= 6
Define Variable: DownstreamBotElevIndex [Integer]
Set Variable: DownstreamBotElevIndex:= 7
Define Variable: UpstreamWidthIndex [Integer]
Set Variable: UpstreamWidthIndex:= 8
Define Variable: DownstreamWidthIndex [Integer]
Set Variable: DownstreamWidthIndex:= 9
Define Variable: SlopeIndex [Integer]
Set Variable: SlopeIndex:= 10
Define Variable: RoughnessIndex [Integer]
Set Variable: RoughnessIndex:= 11
Define Variable: InterpolateStage [Integer]
Set Variable: InterpolateStage:= 12
Define Variable: InterpolateTopElev [Integer]
Set Variable: InterpolateTopElev:= 13
Define Variable: InterpolateBottomElev [Integer]
Set Variable: InterpolateBottomElev:= 14
Define Variable: InterpolateWidth [Integer]
Set Variable: InterpolateWidth:= 15
# #
# Define MT3D Variables
Define Variable: MT3D_ADV [Boolean]
Define Variable: MT3D_CHKMAS [Boolean]
Define Variable: MT3D_CINACT [Real]
Define Variable: MT3D_DCEPS [Real]
Define Variable: MT3D_DCHMOC [Real]
Define Variable: MT3D_DSP [Boolean]
Define Variable: MT3D_FlowFile [Boolean]
Define Variable: MT3D_Export [Boolean]
Define Variable: MT3D_PrintFormat [Integer]
Define Variable: MT3D_IFMTCN [Integer]
Define Variable: MT3D_IFMTDP [Integer]
Define Variable: MT3D_IFMTNP [Integer]
Define Variable: MT3D_IFMTRF [Integer]
Define Variable: MT3D_INTERP [Integer]
Define Variable: MT3D_IREACT [Integer]
Define Variable: MT3D_ISOTHM [Integer]
Define Variable: MT3D_ITRACK [Integer]
Define Variable: MT3D_LUNIT [String]
Define Variable: MT3D_MIXELM [Integer]
Define Variable: MT3D96 [Boolean]
Define Variable: MT3D_Heading1 [String]
Define Variable: MT3D_Heading2 [String]
Define Variable: MT3D_LoopLimit [Integer]
Define Variable: MT3D_InnerLoopLimit [Integer]
Define Variable: MT3D_MUNIT [String]
Define Variable: MT3D_MXPART [Integer]
Define Variable: MT3D_NLSINK [Integer]
Define Variable: MT3D_NPH [Integer]
Define Variable: MT3D_NPL [Integer]
Define Variable: MT3D_NPLANE [Integer]
Define Variable: MT3D_NPMAX [Integer]
Define Variable: MT3D_NPMIN [Integer]
Define Variable: MT3D_NPRS [Integer]
Define Variable: MT3D_NPSINK [Integer]
Define Variable: MT3D_PERCEL [Real]
Define Variable: MT3D_Print [Boolean]
Define Variable: MT3D_RCT [Boolean]
Define Variable: MT3D_Run [Boolean]
Define Variable: MT3D_SAVUCN [Boolean]
Define Variable: MT3D_SRMULT [Real]
Define Variable: MT3D_SSM [Boolean]
# Define Variable: MT3D_TUNIT [String]
Define Variable: MT3D_WD [Real]
Define Variable: MT3D_DomainObjects [Real]
Define Variable: ThisTop [Real]
Define Variable: ThisBottom [Real]
Define Variable: MassFraction [Real]
# 
# Set MT3D Variables
Set Variable: MT3D_ADV:= @cbADV@
Set Variable: MT3D_CHKMAS:= "@cbCheckMass@"
Set Variable: MT3D_CINACT:= @adeMT3DInactive@
Set Variable: MT3D_DCEPS:= @adeMT3DNeglSize@
Set Variable: MT3D_DCHMOC:= @adeMT3DCritRelConcGrad@
Set Variable: MT3D_DSP:= @cbDSP@
Set Variable: MT3D_Export:= @rbRunMT3D@|@rbCreateMT3D@
# Set Variable: MT3D_FlowFile:= @MT3D_FlowFile@
Set Variable: MT3D_PrintFormat:= -1 * (@comboPrintoutFormat@*2-1)
Set Variable: MT3D_IFMTCN:= @cbPrintConc@
Set Variable: MT3D_IFMTDP:= @cbPrintDispCoef@
Set Variable: MT3D_IFMTNP:= @cbPrintNumParticles@
Set Variable: MT3D_IFMTRF:= @cbPrintRetardation@
If: MT3D_IFMTCN
	Set Variable: MT3D_IFMTCN:= @comboConcentrationFormat@ * MT3D_PrintFormat
End if
If: MT3D_IFMTDP
	Set Variable: MT3D_IFMTDP:= @comboRetardationFormat@ * MT3D_PrintFormat
End if
If: MT3D_IFMTNP
	Set Variable: MT3D_IFMTNP:= @comboDispersionFormat@ * MT3D_PrintFormat
End if
If: MT3D_IFMTRF
	Set Variable: MT3D_IFMTRF:= @comboParticlePrintFormat@ * MT3D_PrintFormat
End if
Set Variable: MT3D_INTERP:= 1
Set Variable: MT3D_IREACT:= @comboMT3DIREACT@
Set Variable: MT3D_ISOTHM:= @comboMT3DIsotherm@
Set Variable: MT3D_ITRACK:= @comboMT3DParticleTrackingAlg@ + 1
Set Variable: MT3D_LUNIT:= "@edMT3DLength@"
Set Variable: MT3D_MIXELM:= @comboMT3DAdvSolScheme@
Set Variable: MT3D96:= 0
Set Variable: MT3D_Heading1:= "@adeMT3DHeading1@"
Set Variable: MT3D_Heading2:= "@adeMT3DHeading2@"
Set Variable: MT3D_MUNIT:= "@edMT3DMass@"
Set Variable: MT3D_MXPART:= @adeMT3DMaxParticleCount@
Set Variable: MT3D_NLSINK:= @comboMT3DInitPartSinkChoice@
If: MT3D_NLSINK
	Set Variable: MT3D_NLSINK:= @adeMT3DSinkParticlePlaneCount@
End if
Set Variable: MT3D_NPH:= @adeMT3DInitPartLarge@
Set Variable: MT3D_NPL:= @adeMT3DInitPartSmall@
Set Variable: MT3D_NPLANE:= @comboMT3DInitPartPlace@
If: MT3D_NPLANE
	Set Variable: MT3D_NPLANE:= @adeMT3DParticlePlaneCount@
End if
Set Variable: MT3D_NPMAX:= @adeMT3DMaxPartPerCell@
Set Variable: MT3D_NPMIN:= @adeMT3DMinPartPerCell@
Set Variable: MT3D_NPRS:= @comboResultsPrinted@
If: MT3D_NPRS = 1
	Set Variable: MT3D_NPRS:= -@adeResultsPrintedN@
End if
Set Variable: MT3D_NPSINK:= @adeMT3DSinkParticleCount@
Set Variable: MT3D_PERCEL:= @adeMT3DMaxParticleMovement@
Set Variable: MT3D_Print:= @cbPrintLinkFile@
Set Variable: MT3D_RCT:= @cbRCT@
Set Variable: MT3D_Run:= @rbRunMT3D@
Set Variable: MT3D_SAVUCN:= "@cbSaveConcAndDisc@"
Set Variable: MT3D_SRMULT:= @adeMT3DParticleMult@
Set Variable: MT3D_SSM:= @cbSSM@
Set Variable: MT3D_WD:= @adeMT3DConcWeight@
# 
Define Variable: MT3D_Path [String]
Set Variable: MT3D_Path:= "@adeMT3DPath@"
# 
# RBW New Code 3/26/98
Define Variable: MemError [Boolean]
# Define Variable: UnitIndex [Integer]
# 
Define Variable: ProgressBarMessage [String]
Define Variable: MaxSteps [Integer]
Define Variable: CurrentSpecifiedBoundaryCountList [Integer]
Define Variable: CurrentBoundaryCountList [Integer]
Evaluate expression: MODFLOW_L_Initialize()
Set Variable: CurrentSpecifiedBoundaryCountList:= MODFLOW_L_CreateNewList()
Evaluate expression: MODFLOW_L_SetListSize(CurrentSpecifiedBoundaryCountList, MODFLOW_NPER()+1)
Set Variable: CurrentBoundaryCountList:= MODFLOW_L_CreateNewList()
Evaluate expression: MODFLOW_L_SetListSize(CurrentBoundaryCountList, MODFLOW_NPER()+1)
# 
Set Variable: CalcElev:= 0
If: MT3D_SSM & ExportMT3D_SSM
	If: RechargeChoice
		Set Variable: CalcElev:= 1
	End if
	If: EvapotranspirationChoice
		Set Variable: CalcElev:= 1
	End if
	If: RiverChoice
		Set Variable: CalcElev:= 1
	End if
	If: DrainChoice
		Set Variable: CalcElev:= 1
	End if
	If: StreamChoice
		Set Variable: CalcElev:= 1
	End if
End if
# 
Set Variable: MaxSteps:= 2 * MODFLOW_NLAY()
# 
If: CalcElev
	Set Variable: MaxSteps:= MaxSteps + 2*MODFLOW_NLAY()
End if
If: MT3D_Export
	If: ExportMT3D_BTN
		Set Variable: MaxSteps:= MaxSteps + 1 + 5 * MODFLOW_NLAY() + MODFLOW_NPER()
	End if
	If: MT3D_ADV & ExportMT3D_ADV
		Set Variable: MaxSteps:= MaxSteps + 1
	End if
	If: MT3D_DSP & ExportMT3D_DSP
		Set Variable: MaxSteps:= MaxSteps + 1
	End if
	If: MT3D_RCT & ExportMT3D_RCT
		Set Variable: MaxSteps:= MaxSteps + 1
	End if
	If: MT3D_SSM & ExportMT3D_SSM
		Set Variable: MaxSteps:= MaxSteps + MODFLOW_NLAY()
		If: WellChoice!=0
			Set Variable: MaxSteps:= MaxSteps + MODFLOW_NLAY()
		End if
		If: GeneralHeadChoice!=0
			Set Variable: MaxSteps:= MaxSteps + MODFLOW_NLAY()
		End if
		If: DrainChoice!=0
			Set Variable: MaxSteps:= MaxSteps + MODFLOW_NLAY()
		End if
		If: RiverChoice!=0
			Set Variable: MaxSteps:= MaxSteps + MODFLOW_NLAY()
		End if
		If: @cbMT3D_TVC@
			Set Variable: MaxSteps:= MaxSteps + MODFLOW_NLAY()
		End if
	End if
End if
# RBW 3/26/98 end change
# 
Set Variable: TopElevationList:= MODFLOW_L_CreateNew3DList(NumColumns(), NumRows(), MODFLOW_NLAY())
Set Variable: BottomElevationList:= MODFLOW_L_CreateNew3DList(NumColumns(), NumRows(), MODFLOW_NLAY())
Set Variable: ThicknessList:= MODFLOW_L_CreateNew3DList(NumColumns(), NumRows(), MODFLOW_NLAY())
Set Variable: KzList:= MODFLOW_L_CreateNew3DList(NumColumns(), NumRows(), MODFLOW_NLAY())
If: CalcElev
	Loop for: Variable LayIndex from: 1 to: MODFLOW_NLAY() step: 1
		Evaluate expression: MODFLOW_ProgressBarSetMessage("Evaluating Top Elevations of Unit " + LayIndex)
		Evaluate expression: MODFLOW_ProgressBarAdvance()
		Redirect output to: Dummy
			Export matrix: MODFLOW_L_SetOneBased3DListItem(TopElevationList, Column(), Row(), LayIndex, Elev Top Unit[LayIndex]) [G0]
		End file
		Evaluate expression: MODFLOW_Delete_File("Dummy")
	End loop
	Loop for: Variable LayIndex from: 1 to: MODFLOW_NLAY() step: 1
		Evaluate expression: MODFLOW_ProgressBarSetMessage("Evaluating Bottom Elevations of Unit " + LayIndex)
		Evaluate expression: MODFLOW_ProgressBarAdvance()
		Redirect output to: Dummy
			Export matrix: MODFLOW_L_SetOneBased3DListItem(BottomElevationList, Column(), Row(), LayIndex, Elev Bot Unit[LayIndex]) [G0]
			If: MODFLOW_SIMUL(LayIndex)
				Export matrix: MODFLOW_L_SetOneBased3DListItem(ThicknessList, Column(), Row(), LayIndex, (MODFLOW_L_GetFromOneBased3DList(TopElevationList, Column(), Row(), LayIndex)-MODFLOW_L_GetFromOneBased3DList(BottomElevationList, Column(), Row(), LayIndex))/MODFLOW_NDIV(LayIndex)) [G0]
			Else
				Export matrix: MODFLOW_L_SetOneBased3DListItem(ThicknessList, Column(), Row(), LayIndex, (MODFLOW_L_GetFromOneBased3DList(TopElevationList, Column(), Row(), LayIndex)-MODFLOW_L_GetFromOneBased3DList(BottomElevationList, Column(), Row(), LayIndex))) [G0]
			End if
			Export matrix: If((MODFLOW_L_GetFromOneBased3DList(ThicknessList, Column(), Row(), LayIndex)<=0)&IBOUND Unit[LayIndex], MODFLOW_ProgressBarAddLine("Negative or zero unit thickness at Unit " + LayIndex + "; Column: " + Column() + "; Row: " + Row()), 0) [G0]
		End file
		Evaluate expression: MODFLOW_Delete_File("Dummy")
	End loop
	Evaluate expression: MODFLOW_ProgressBarSetMessage("Checking for elevation errors")
	If: MODFLOW_NLAY() > 1
		Loop for: Variable LayIndex from: 1 to: MODFLOW_NLAY()-1 step: 1
			Redirect output to: Dummy
				If: MODFLOW_SpecVcont(LayIndex)
					Export matrix: If(MODFLOW_L_GetFromOneBased3DList(BottomElevationList, Column(), Row(), LayIndex)>MODFLOW_L_GetFromOneBased3DList(TopElevationList, Column(), Row(), LayIndex + 1)&IBOUND Unit[LayIndex]&IBOUND Unit[LayIndex+1], MODFLOW_ProgressBarAddLine("Bottom elevation at Column: " + Column() + "; Row: " + Row() + "; Unit: " + LayIndex + "is less than the top elevation of the unit beneath it."), 0) [G0]
				Else
					Export matrix: If(MODFLOW_L_GetFromOneBased3DList(BottomElevationList, Column(), Row(), LayIndex)!=MODFLOW_L_GetFromOneBased3DList(TopElevationList, Column(), Row(), LayIndex + 1)&IBOUND Unit[LayIndex]&IBOUND Unit[LayIndex+1], MODFLOW_ProgressBarAddLine("Bottom elevation at Column: " + Column() + "; Row: " + Row() + "; Unit: " + LayIndex + "is different from the top elevation of the unit beneath it."), 0) [G0]
				End if
			End file
			Evaluate expression: MODFLOW_Delete_File("Dummy")
		End loop
	End if
End if
Set Variable: MemError:= IsNAN(TopElevationList)
If: MemError
	Alert: "The 'List.dll' PIE is not installed. You must install it before you can export data from this model."
End if
# 
Evaluate expression: MODFLOW_ProgressBarInitialize(MaxSteps)
# 
If: !MemError
	# RBW End New Code 3/26/98
	Loop for: Variable LayIndex from: 1 to: MODFLOW_NLAY() step: 1
		If: MODFLOW_SIMUL(LayIndex)!=0&TopSimul=0
			Set Variable: TopSimul:= LayIndex
		End if
	End loop
	# 
	Loop for: Variable LayIndex from: MODFLOW_NLAY() to: 1 step: -1
		If: MODFLOW_SIMUL(LayIndex)!=0&BotSimul=0
			Set Variable: BotSimul:= LayIndex
		End if
	End loop
	# 
	If: TopSimul=0&BotSimul=0
		Set Variable: err_geo:= 1
		# Alert: "No geologic units are specified for simulation!"
	End if
	# 
	Set Variable: ok:= 1
	If: MT3D_Export
		Set Variable: LayerCount:= 0
		Loop for: Variable LayIndex from: 1 to: MODFLOW_NLAY() step: 1
			If: MODFLOW_SIMUL(LayIndex)!=0
				Set Variable: LayerCount:= LayerCount+MODFLOW_NDIV(LayIndex)
			End if
		End loop
		Set Variable: LayconArray:= MODFLOW_L_CreateNewList()
		Set Variable: Test:= LayconArray
		If: IsNAN(Test)
			Alert: "The List PIE could not be found!"
			Set Variable: ok:= 0
		End if
		Set Variable: MT3D_DomainObjects:= 0
		Loop for: Objects in layer: MT3D Domain Outline
			Set Variable: MT3D_DomainObjects:= MT3D_DomainObjects+1
		End loop
		If: (MT3D_DomainObjects=0)
			Loop for: Variable LayIndex from: 1 to: MODFLOW_NLAY() step: 1
				If: (MODFLOW_SIMUL(LayIndex)!=0)
					Loop for: Blocks
						If: (MODFLOW FD Grid.ICBUND Unit[LayIndex]!=0)
							Set Variable: MT3D_DomainObjects:= 1
						End if
					End loop
				End if
			End loop
		End if
		If: (MT3D_DomainObjects=0)
			Alert: "The MT3D Domain Outline has not been set. Creation of data files for MT3D can not continue."
			Set Variable: ok:= 0
		End if
	End if
	# 
	# Export MT3D Response File
	# 
	If: MT3D_Export&ok
		# 
		Redirect output to: @adeFileName@.MTR
			Start a new line
				Export expression: FileName + ".MLS" [G0]
			End line
			Start a new line
				Export expression: FileName + ".BTN" [G0]
			End line
			If: MT3D_ADV
				Start a new line
					Export expression: FileName + ".ADV" [G0]
				End line
			End if
			If: MT3D_DSP
				Start a new line
					Export expression: FileName + ".DSP" [G0]
				End line
			End if
			If: MT3D_SSM
				Start a new line
					Export expression: FileName + ".SSM" [G0]
				End line
			End if
			If: MT3D_RCT
				Start a new line
					Export expression: FileName + ".RCT" [G0]
				End line
			End if
			Start a new line
				Export expression: FileName + ".FLO" [G0]
			End line
			If: MT3D_Print
				Start a new line
					Export expression: "Y" [G0]
				End line
			Else
				Start a new line
					Export expression: "N" [G0]
				End line
			End if
		End file
		# 
		# Export Basic Transport Package
		# 
		If: ExportMT3D_BTN
			Redirect output to: @adeFileName@.BTN
				# 
				# Export headings (MT3D, Basic transport package, A1 and A2)
				Start a new line
					Export expression: MT3D_Heading1 [G0]
				End line
				Start a new line
					Export expression: MT3D_Heading2 [G0]
				End line
				# 
				# Export number of layers, rows columns and stress periods (MT3D, Basic transport package, A3)
				Start a new line
					Export expression: NumLay [I10]
					Export expression: NumRows() [I10]
					Export expression: NumColumns() [I10]
					Export expression: MODFLOW_NPER() [I10]
				End line
				# 
				# Export time, length and mass units (MT3D, Basic transport package, A4)
				Start a new line
					If: ITMUNI=0
						Export expression: "X" [G4]
					Else
						If: ITMUNI=1
							Export expression: "s" [G4]
						Else
							If: ITMUNI=2
								Export expression: "min" [G4]
							Else
								If: ITMUNI=3
									Export expression: "hr" [G4]
								Else
									If: ITMUNI=4
										Export expression: "day" [G4]
									Else
										Export expression: "yr" [G4]
									End if
								End if
							End if
						End if
					End if
					Export expression: MT3D_LUNIT [G4]
					Export expression: MT3D_MUNIT [G4]
				End line
				# 
				# Export transport options (MT3D, Basic transport package, A5)
				Start a new line
					If: MT3D_ADV
						Export expression: "T" [G2]
					Else
						Export expression: "F" [G2]
					End if
					If: MT3D_DSP
						Export expression: "T" [G2]
					Else
						Export expression: "F" [G2]
					End if
					If: MT3D_SSM
						Export expression: "T" [G2]
					Else
						Export expression: "F" [G2]
					End if
					If: MT3D_RCT
						Export expression: "T" [G0]
					Else
						Export expression: "F" [G0]
					End if
				End line
				# 
				# Export model layer type code (MT3D, Basic transport package, A6)
				Loop for: Variable LayIndex from: 1 to: MODFLOW_NLAY() step: 1
					If: MODFLOW_SIMUL(LayIndex)!=0
						Loop for: Variable DivIndex from: 1 to: MODFLOW_NDIV(LayIndex) step: 1
							Evaluate expression: MODFLOW_L_AddToList(LayconArray, MODFLOW_LAYCON(LayIndex))
						End loop
					End if
				End loop
				Set Variable: MT3D_LoopLimit:= Div(LayerCount, 40)
				If: MT3D_LoopLimit<LayerCount / 40
					Set Variable: MT3D_LoopLimit:= MT3D_LoopLimit + 1
				End if
				Set Variable: MT3D_InnerLoopLimit:= LayerCount
				Set Variable: k:= 0
				Loop for: Variable i from: 1 to: MT3D_LoopLimit step: 1
					Start a new line
						If: MT3D_InnerLoopLimit<40
							Loop for: Variable j from: 1 to: MT3D_InnerLoopLimit step: 1
								Export expression: MODFLOW_L_GetFromList(LayconArray, k) [I2]
								Set Variable: k:= k+1
							End loop
						Else
							Loop for: Variable j from: 1 to: 40 step: 1
								Export expression: MODFLOW_L_GetFromList(LayconArray, k) [I2]
								Set Variable: k:= k + 1
							End loop
							Set Variable: MT3D_InnerLoopLimit:= MT3D_InnerLoopLimit - 40
						End if
					End line
				End loop
				# 
				# Export cell widths along rows (MT3D, Basic transport package, A7)
				Start a new line
					Export expression: 100 [I10]
					Export expression: 1 [I10]
					Export expression: "(E13.5)" [G20]
					Export expression: 0 [I10]
					Export expression: " DELR" [G0]
				End line
				Loop for: Columns
					If: $Column$<NumColumns()
						Start a new line
							Export expression: Abs(NthColumnPos($Column$+1)-NthColumnPos($Column$)) [E13.5]
						End line
					End if
				End loop
				# 
				# Export cell widths along columns (MT3D, Basic transport package, A8)
				Start a new line
					Export expression: 100 [I10]
					Export expression: 1 [I10]
					Export expression: "(E13.5)" [G20]
					Export expression: 0 [I10]
					Export expression: " DELC" [G0]
				End line
				Loop for: Rows
					If: $Row$<NumRows()