unit SutraPIEFunctions;

interface

uses
  ProjectPIE, AnePIE, Forms, sysutils, Controls, classes;

Procedure GetSutraFunctions(const Project, Vendor, Product : ANE_STR;
  var numNames : ANE_INT32);

implementation

uses  GetANEFunctionsUnit , SutraPIEDescriptors, ProjectFunctions,
      FunctionPIE, ExportTemplatePIE, RunsutraUnit, PostSutraUnit, ImportPIE,
      VirtualMeshFunctions, ParamNamesAndTypes, SutraVertMeshCount,
      SourcesOfFluidFunctions, SourcesOfSoluteFunctions, OverriddenArrayUnit,
      ZFunction, BoundaryNodeFunction, SpecifiedPressFunctions,
      SpecifiedConcTempFunctions, UnsatZoneFunctions, ObservationFunctions,
      SuperfishUnit, SurfaceEditPIE, RunSutraViewer, SutraHelp,
      ReadDataSet3Unit, ReadOldICSUnit;

procedure IntializeFunctionPieDescriptor(var Descriptor : FunctionPIEDesc);
var
  UsualOptions : EFunctionPIEFlags ;
begin
  UsualOptions := kFunctionNeedsProject or kFunctionIsHidden;
  Descriptor.version := FUNCTION_PIE_VERSION;
  Descriptor.functionFlags := UsualOptions;
  Descriptor.returnType := kPIEInteger;
  Descriptor.numParams := 0;
  Descriptor.numOptParams := 0;
  Descriptor.paramNames := nil;
  Descriptor.paramTypes := nil;
  Descriptor.neededProject := 'SUTRA';
end;

Procedure GetSutraFunctions(const Project, Vendor, Product : ANE_STR;
  var numNames : ANE_INT32);
var
  UsualOptions : EFunctionPIEFlags ;
begin
  UsualOptions := kFunctionNeedsProject or kFunctionIsHidden;
//  UsualOptions := kFunctionNeedsProject;

  numNames := 0;

  {$ASSERTIONS ON}
  {Assertions are a debugging tool. They can be turned off
  in the final version. See Delphi help for more information.}

  //MODFLOW Project
  gSUTRAProjectPDesc.version := PROJECT_PIE_VERSION;
  gSUTRAProjectPDesc.name := Project;
  gSUTRAProjectPDesc.projectFlags := kProjectCanEdit or
                                      kProjectShouldClean or
                                      kProjectShouldSave;
  gSUTRAProjectPDesc.createNewProc := GProjectNewSutra;
  gSUTRAProjectPDesc.editProjectProc := GEditSutraForm;
  gSUTRAProjectPDesc.cleanProjectProc := GClearSutraForm;
  gSUTRAProjectPDesc.saveProc := GSaveSutraForm;
  gSUTRAProjectPDesc.loadProc := GLoadSutraForm;

  gSUTRAPieDesc.name  := 'New SUTRA Project...';
  gSUTRAPieDesc.PieType :=  kProjectPIE;
  gSUTRAPieDesc.descriptor := @gSUTRAProjectPDesc;

  Assert(numNames < kMaxPIEDesc);
  gPIEDesc[numNames] := @gSUTRAPieDesc;  // add descriptor to list
  Inc(numNames);	// increment number of names

  // Run Model
  gSutraRunExportPIEDesc.name := 'Run &SUTRA';
  gSutraRunExportPIEDesc.exportType := kPIEQuadMeshLayer;
  gSutraRunExportPIEDesc.exportFlags := kExportNeedsProject
    or kExportDontShowParamDialog or kExportDontShowFileDialog;
  gSutraRunExportPIEDesc.getTemplateProc := RunSutraPIE;
  gSutraRunExportPIEDesc.preExportProc := nil;
  gSutraRunExportPIEDesc.postExportProc := nil;
  gSutraRunExportPIEDesc.neededProject := Project;

  gSutraRunPIEDesc.version := ANE_PIE_VERSION;             // Function Pie version
  gSutraRunPIEDesc.vendor :=  Vendor;                           // vendor
  gSutraRunPIEDesc.product := Product;                          // product
  gSutraRunPIEDesc.name  := 'Run &SUTRA';
  gSutraRunPIEDesc.PieType :=  kExportTemplatePIE;
  gSutraRunPIEDesc.descriptor := @gSutraRunExportPIEDesc;

  Assert (numNames < kMaxPIEDesc) ;
  gPIEDesc[numNames] := @gSutraRunPIEDesc;
  Inc(numNames);	// add descriptor to list

  //post processing
  gSutraPostImportPIEDesc.version := IMPORT_PIE_VERSION;
  gSutraPostImportPIEDesc.name := 'Sutra Post Proc...';
  gSutraPostImportPIEDesc.importFlags := kImportAllwaysVisible or kImportNeedsProject;
  gSutraPostImportPIEDesc.toLayerTypes := kPIEAnyLayer;
  gSutraPostImportPIEDesc.fromLayerTypes := kPIEAnyLayer;
  gSutraPostImportPIEDesc.doImportProc := @GSutraPostProcessingPIE;
  gSutraPostImportPIEDesc.neededProject := Project;

  gSutraPostPIEDesc.version := ANE_PIE_VERSION;
  gSutraPostPIEDesc.vendor :=  Vendor;                           // vendor
  gSutraPostPIEDesc.product := Product;                          // product
  gSutraPostPIEDesc.name := 'Sutra Post Proc...';
  gSutraPostPIEDesc.PieType := kImportPIE;
  gSutraPostPIEDesc.descriptor := @gSutraPostImportPIEDesc;

  Assert (numNames < kMaxPIEDesc) ;
  gPIEDesc[numNames] := @gSutraPostPIEDesc;
  Inc(numNames);	// add descriptor to list


  // Make Virtual Mesh Pie descriptor
  gSutraMakeVirtualMeshFunctionPieDesc.version := FUNCTION_PIE_VERSION;       // Function PIE verions
  gSutraMakeVirtualMeshFunctionPieDesc.functionFlags := UsualOptions ;   // Function options
  gSutraMakeVirtualMeshFunctionPieDesc.name := 'Sutra_MakeVMesh';                       // Function name
  gSutraMakeVirtualMeshFunctionPieDesc.address := MakeVirtualMesh;                 // Function address
  gSutraMakeVirtualMeshFunctionPieDesc.returnType := kPIEBoolean;              // return type
  gSutraMakeVirtualMeshFunctionPieDesc.numParams := 0;                        // number of parameters;
  gSutraMakeVirtualMeshFunctionPieDesc.numOptParams := 0;                      // number of optional parameters;
  gSutraMakeVirtualMeshFunctionPieDesc.paramNames := nil;                     // paramter names
  gSutraMakeVirtualMeshFunctionPieDesc.paramTypes := nil;                      // parameter types
  gSutraMakeVirtualMeshFunctionPieDesc.neededProject := Project;               // needed project

  gSutraMakeVirtualMeshPieDesc.version := ANE_PIE_VERSION;             // Function Pie version
  gSutraMakeVirtualMeshPieDesc.vendor :=  Vendor;                           // vendor
  gSutraMakeVirtualMeshPieDesc.product := Product;                          // product
  gSutraMakeVirtualMeshPieDesc.name  := 'Sutra_MakeVMesh';                            // function name
  gSutraMakeVirtualMeshPieDesc.PieType :=  kFunctionPIE;                    // Pie type
  gSutraMakeVirtualMeshPieDesc.descriptor := @gSutraMakeVirtualMeshFunctionPieDesc;         // function PIE descriptor address

  Assert(numNames < kMaxPIEDesc);
  gPIEDesc[numNames] := @gSutraMakeVirtualMeshPieDesc;                      // add descriptor to list
  Inc(numNames);	                                             // increment number of names

  // Free Virtual Mesh Pie descriptor
  gSutraFreeVirtualMeshFunctionPieDesc.version := FUNCTION_PIE_VERSION;       // Function PIE verions
  gSutraFreeVirtualMeshFunctionPieDesc.functionFlags := UsualOptions ;   // Function options
  gSutraFreeVirtualMeshFunctionPieDesc.name := 'Sutra_FreeVMesh';                       // Function name
  gSutraFreeVirtualMeshFunctionPieDesc.address := FreeVirtualMesh;                 // Function address
  gSutraFreeVirtualMeshFunctionPieDesc.returnType := kPIEBoolean;              // return type
  gSutraFreeVirtualMeshFunctionPieDesc.numParams := 0;                        // number of parameters;
  gSutraFreeVirtualMeshFunctionPieDesc.numOptParams := 0;                      // number of optional parameters;
  gSutraFreeVirtualMeshFunctionPieDesc.paramNames := nil;                     // paramter names
  gSutraFreeVirtualMeshFunctionPieDesc.paramTypes := nil;                      // parameter types
  gSutraFreeVirtualMeshFunctionPieDesc.neededProject := Project;               // needed project

  gSutraFreeVirtualMeshPieDesc.version := ANE_PIE_VERSION;             // Function Pie version
  gSutraFreeVirtualMeshPieDesc.vendor :=  Vendor;                           // vendor
  gSutraFreeVirtualMeshPieDesc.product := Product;                          // product
  gSutraFreeVirtualMeshPieDesc.name  := 'Sutra_FreeVMesh';                            // function name
  gSutraFreeVirtualMeshPieDesc.PieType :=  kFunctionPIE;                    // Pie type
  gSutraFreeVirtualMeshPieDesc.descriptor := @gSutraFreeVirtualMeshFunctionPieDesc;         // function PIE descriptor address

  Assert(numNames < kMaxPIEDesc);
  gPIEDesc[numNames] := @gSutraFreeVirtualMeshPieDesc;                      // add descriptor to list
  Inc(numNames);	                                             // increment number of names

  // Initialize Porosity Pie descriptor
  gSutraInitializePorosityFunctionPieDesc.version := FUNCTION_PIE_VERSION;       // Function PIE verions
  gSutraInitializePorosityFunctionPieDesc.functionFlags := UsualOptions ;   // Function options
  gSutraInitializePorosityFunctionPieDesc.name := 'Sutra_InitializePorosity';                       // Function name
  gSutraInitializePorosityFunctionPieDesc.address := ParsePorosity;                 // Function address
  gSutraInitializePorosityFunctionPieDesc.returnType := kPIEBoolean;              // return type
  gSutraInitializePorosityFunctionPieDesc.numParams := 0;                        // number of parameters;
  gSutraInitializePorosityFunctionPieDesc.numOptParams := 0;                      // number of optional parameters;
  gSutraInitializePorosityFunctionPieDesc.paramNames := nil;                     // paramter names
  gSutraInitializePorosityFunctionPieDesc.paramTypes := nil;                      // parameter types
  gSutraInitializePorosityFunctionPieDesc.neededProject := Project;               // needed project

  gSutraInitializePorosityPieDesc.version := ANE_PIE_VERSION;             // Function Pie version
  gSutraInitializePorosityPieDesc.vendor :=  Vendor;                           // vendor
  gSutraInitializePorosityPieDesc.product := Product;                          // product
  gSutraInitializePorosityPieDesc.name  := 'Sutra_InitializePorosity';                            // function name
  gSutraInitializePorosityPieDesc.PieType :=  kFunctionPIE;                    // Pie type
  gSutraInitializePorosityPieDesc.descriptor := @gSutraInitializePorosityFunctionPieDesc;         // function PIE descriptor address

  Assert(numNames < kMaxPIEDesc);
  gPIEDesc[numNames] := @gSutraInitializePorosityPieDesc;                      // add descriptor to list
  Inc(numNames);	                                             // increment number of names

  // Get Morphed Node Value Pie descriptor
  gSutraGetMorphedNodeValueFunctionPieDesc.version := FUNCTION_PIE_VERSION;       // Function PIE verions
  gSutraGetMorphedNodeValueFunctionPieDesc.functionFlags := UsualOptions ;   // Function options
  gSutraGetMorphedNodeValueFunctionPieDesc.name := 'Sutra_GetMorphedNodeValue';                       // Function name
  gSutraGetMorphedNodeValueFunctionPieDesc.address := GetMorphedNodeValue;                 // Function address
  gSutraGetMorphedNodeValueFunctionPieDesc.returnType := kPIEFloat;              // return type
  gSutraGetMorphedNodeValueFunctionPieDesc.numParams := 2;                        // number of parameters;
  gSutraGetMorphedNodeValueFunctionPieDesc.numOptParams := 0;                      // number of optional parameters;
  gSutraGetMorphedNodeValueFunctionPieDesc.paramNames := @gpnNodeExpression;                     // paramter names
  gSutraGetMorphedNodeValueFunctionPieDesc.paramTypes := @gOneIntegerStringTypes;                      // parameter types
  gSutraGetMorphedNodeValueFunctionPieDesc.neededProject := Project;               // needed project

  gSutraGetMorphedNodeValuePieDesc.version := ANE_PIE_VERSION;             // Function Pie version
  gSutraGetMorphedNodeValuePieDesc.vendor :=  Vendor;                           // vendor
  gSutraGetMorphedNodeValuePieDesc.product := Product;                          // product
  gSutraGetMorphedNodeValuePieDesc.name  := 'Sutra_GetMorphedNodeValue';                            // function name
  gSutraGetMorphedNodeValuePieDesc.PieType :=  kFunctionPIE;                    // Pie type
  gSutraGetMorphedNodeValuePieDesc.descriptor := @gSutraGetMorphedNodeValueFunctionPieDesc;         // function PIE descriptor address

  Assert(numNames < kMaxPIEDesc);
  gPIEDesc[numNames] := @gSutraGetMorphedNodeValuePieDesc;                      // add descriptor to list
  Inc(numNames);	                                             // increment number of names

  // Initialize Initial Pressure Pie descriptor
  gSutraInitializeInitialPressureFunctionPieDesc.version := FUNCTION_PIE_VERSION;       // Function PIE verions
  gSutraInitializeInitialPressureFunctionPieDesc.functionFlags := UsualOptions ;   // Function options
  gSutraInitializeInitialPressureFunctionPieDesc.name := 'Sutra_InitializeInitialPressure';                       // Function name
  gSutraInitializeInitialPressureFunctionPieDesc.address := ParseInitialPressure;                 // Function address
  gSutraInitializeInitialPressureFunctionPieDesc.returnType := kPIEBoolean;              // return type
  gSutraInitializeInitialPressureFunctionPieDesc.numParams := 0;                        // number of parameters;
  gSutraInitializeInitialPressureFunctionPieDesc.numOptParams := 0;                      // number of optional parameters;
  gSutraInitializeInitialPressureFunctionPieDesc.paramNames := nil;                     // paramter names
  gSutraInitializeInitialPressureFunctionPieDesc.paramTypes := nil;                      // parameter types
  gSutraInitializeInitialPressureFunctionPieDesc.neededProject := Project;               // needed project

  gSutraInitializeInitialPressurePieDesc.version := ANE_PIE_VERSION;             // Function Pie version
  gSutraInitializeInitialPressurePieDesc.vendor :=  Vendor;                           // vendor
  gSutraInitializeInitialPressurePieDesc.product := Product;                          // product
  gSutraInitializeInitialPressurePieDesc.name  := 'Sutra_InitializeInitialPressure';                            // function name
  gSutraInitializeInitialPressurePieDesc.PieType :=  kFunctionPIE;                    // Pie type
  gSutraInitializeInitialPressurePieDesc.descriptor := @gSutraInitializeInitialPressureFunctionPieDesc;         // function PIE descriptor address

  Assert(numNames < kMaxPIEDesc);
  gPIEDesc[numNames] := @gSutraInitializeInitialPressurePieDesc;                      // add descriptor to list
  Inc(numNames);	                                             // increment number of names

  // Initialize Initial Pressure Pie descriptor
  gSutraInitializeInitialConcentrationFunctionPieDesc.version := FUNCTION_PIE_VERSION;       // Function PIE verions
  gSutraInitializeInitialConcentrationFunctionPieDesc.functionFlags := UsualOptions ;   // Function options
  gSutraInitializeInitialConcentrationFunctionPieDesc.name := 'Sutra_InitializeInitialConcentration';                       // Function name
  gSutraInitializeInitialConcentrationFunctionPieDesc.address := ParseInitialConcentration;                 // Function address
  gSutraInitializeInitialConcentrationFunctionPieDesc.returnType := kPIEBoolean;              // return type
  gSutraInitializeInitialConcentrationFunctionPieDesc.numParams := 0;                        // number of parameters;
  gSutraInitializeInitialConcentrationFunctionPieDesc.numOptParams := 0;                      // number of optional parameters;
  gSutraInitializeInitialConcentrationFunctionPieDesc.paramNames := nil;                     // paramter names
  gSutraInitializeInitialConcentrationFunctionPieDesc.paramTypes := nil;                      // parameter types
  gSutraInitializeInitialConcentrationFunctionPieDesc.neededProject := Project;               // needed project

  gSutraInitializeInitialConcentrationPieDesc.version := ANE_PIE_VERSION;             // Function Pie version
  gSutraInitializeInitialConcentrationPieDesc.vendor :=  Vendor;                           // vendor
  gSutraInitializeInitialConcentrationPieDesc.product := Product;                          // product
  gSutraInitializeInitialConcentrationPieDesc.name  := 'Sutra_InitializeInitialConcentration';                            // function name
  gSutraInitializeInitialConcentrationPieDesc.PieType :=  kFunctionPIE;                    // Pie type
  gSutraInitializeInitialConcentrationPieDesc.descriptor := @gSutraInitializeInitialConcentrationFunctionPieDesc;         // function PIE descriptor address

  Assert(numNames < kMaxPIEDesc);
  gPIEDesc[numNames] := @gSutraInitializeInitialConcentrationPieDesc;                      // add descriptor to list
  Inc(numNames);	                                             // increment number of names

  // Initialize max permeability Pie descriptor
  gSutraInitializePermMaxFunctionPieDesc.version := FUNCTION_PIE_VERSION;       // Function PIE verions
  gSutraInitializePermMaxFunctionPieDesc.functionFlags := UsualOptions ;   // Function options
  gSutraInitializePermMaxFunctionPieDesc.name := 'Sutra_InitializePermeabilityMaximum';                       // Function name
  gSutraInitializePermMaxFunctionPieDesc.address := ParsePermMax;                 // Function address
  gSutraInitializePermMaxFunctionPieDesc.returnType := kPIEBoolean;              // return type
  gSutraInitializePermMaxFunctionPieDesc.numParams := 0;                        // number of parameters;
  gSutraInitializePermMaxFunctionPieDesc.numOptParams := 0;                      // number of optional parameters;
  gSutraInitializePermMaxFunctionPieDesc.paramNames := nil;                     // paramter names
  gSutraInitializePermMaxFunctionPieDesc.paramTypes := nil;                      // parameter types
  gSutraInitializePermMaxFunctionPieDesc.neededProject := Project;               // needed project

  gSutraInitializePermMaxPieDesc.version := ANE_PIE_VERSION;             // Function Pie version
  gSutraInitializePermMaxPieDesc.vendor :=  Vendor;                           // vendor
  gSutraInitializePermMaxPieDesc.product := Product;                          // product
  gSutraInitializePermMaxPieDesc.name  := 'Sutra_InitializePermeabilityMaximum';                            // function name
  gSutraInitializePermMaxPieDesc.PieType :=  kFunctionPIE;                    // Pie type
  gSutraInitializePermMaxPieDesc.descriptor := @gSutraInitializePermMaxFunctionPieDesc;         // function PIE descriptor address

  Assert(numNames < kMaxPIEDesc);
  gPIEDesc[numNames] := @gSutraInitializePermMaxPieDesc;                      // add descriptor to list
  Inc(numNames);	                                             // increment number of names

  // Initialize middle permeability Pie descriptor
  gSutraInitializePermMiddleFunctionPieDesc.version := FUNCTION_PIE_VERSION;       // Function PIE verions
  gSutraInitializePermMiddleFunctionPieDesc.functionFlags := UsualOptions ;   // Function options
  gSutraInitializePermMiddleFunctionPieDesc.name := 'Sutra_InitializePermeabilityMiddle';                       // Function name
  gSutraInitializePermMiddleFunctionPieDesc.address := ParsePermMiddle;                 // Function address
  gSutraInitializePermMiddleFunctionPieDesc.returnType := kPIEBoolean;              // return type
  gSutraInitializePermMiddleFunctionPieDesc.numParams := 0;                        // number of parameters;
  gSutraInitializePermMiddleFunctionPieDesc.numOptParams := 0;                      // number of optional parameters;
  gSutraInitializePermMiddleFunctionPieDesc.paramNames := nil;                     // paramter names
  gSutraInitializePermMiddleFunctionPieDesc.paramTypes := nil;                      // parameter types
  gSutraInitializePermMiddleFunctionPieDesc.neededProject := Project;               // needed project

  gSutraInitializePermMiddlePieDesc.version := ANE_PIE_VERSION;             // Function Pie version
  gSutraInitializePermMiddlePieDesc.vendor :=  Vendor;                           // vendor
  gSutraInitializePermMiddlePieDesc.product := Product;                          // product
  gSutraInitializePermMiddlePieDesc.name  := 'Sutra_InitializePermeabilityMiddle';                            // function name
  gSutraInitializePermMiddlePieDesc.PieType :=  kFunctionPIE;                    // Pie type
  gSutraInitializePermMiddlePieDesc.descriptor := @gSutraInitializePermMiddleFunctionPieDesc;         // function PIE descriptor address

  Assert(numNames < kMaxPIEDesc);
  gPIEDesc[numNames] := @gSutraInitializePermMiddlePieDesc;                      // add descriptor to list
  Inc(numNames);	                                             // increment number of names

  // Initialize max permeability Pie descriptor
  gSutraInitializePermMinFunctionPieDesc.version := FUNCTION_PIE_VERSION;       // Function PIE verions
  gSutraInitializePermMinFunctionPieDesc.functionFlags := UsualOptions ;   // Function options
  gSutraInitializePermMinFunctionPieDesc.name := 'Sutra_InitializePermeabilityMinimum';                       // Function name
  gSutraInitializePermMinFunctionPieDesc.address := ParsePermMin;                 // Function address
  gSutraInitializePermMinFunctionPieDesc.returnType := kPIEBoolean;              // return type
  gSutraInitializePermMinFunctionPieDesc.numParams := 0;                        // number of parameters;
  gSutraInitializePermMinFunctionPieDesc.numOptParams := 0;                      // number of optional parameters;
  gSutraInitializePermMinFunctionPieDesc.paramNames := nil;                     // paramter names
  gSutraInitializePermMinFunctionPieDesc.paramTypes := nil;                      // parameter types
  gSutraInitializePermMinFunctionPieDesc.neededProject := Project;               // needed project

  gSutraInitializePermMinPieDesc.version := ANE_PIE_VERSION;             // Function Pie version
  gSutraInitializePermMinPieDesc.vendor :=  Vendor;                           // vendor
  gSutraInitializePermMinPieDesc.product := Product;                          // product
  gSutraInitializePermMinPieDesc.name  := 'Sutra_InitializePermeabilityMinimum';                            // function name
  gSutraInitializePermMinPieDesc.PieType :=  kFunctionPIE;                    // Pie type
  gSutraInitializePermMinPieDesc.descriptor := @gSutraInitializePermMinFunctionPieDesc;         // function PIE descriptor address

  Assert(numNames < kMaxPIEDesc);
  gPIEDesc[numNames] := @gSutraInitializePermMinPieDesc;                      // add descriptor to list
  Inc(numNames);	                                             // increment number of names

  // Initialize float expression Pie descriptor
  gSutraInitializeFloatExpressionFunctionPieDesc.version := FUNCTION_PIE_VERSION;       // Function PIE verions
  gSutraInitializeFloatExpressionFunctionPieDesc.functionFlags := UsualOptions ;   // Function options
  gSutraInitializeFloatExpressionFunctionPieDesc.name := 'Sutra_InitializeFloatExpression';                       // Function name
  gSutraInitializeFloatExpressionFunctionPieDesc.address := ParseFloatExpression;                 // Function address
  gSutraInitializeFloatExpressionFunctionPieDesc.returnType := kPIEBoolean;              // return type
  gSutraInitializeFloatExpressionFunctionPieDesc.numParams := 1;                        // number of parameters;
  gSutraInitializeFloatExpressionFunctionPieDesc.numOptParams := 0;                      // number of optional parameters;
  gSutraInitializeFloatExpressionFunctionPieDesc.paramNames := @gpnExpression;                     // paramter names
  gSutraInitializeFloatExpressionFunctionPieDesc.paramTypes := @gOneStringTypes;                      // parameter types
  gSutraInitializeFloatExpressionFunctionPieDesc.neededProject := Project;               // needed project

  gSutraInitializeFloatExpressionPieDesc.version := ANE_PIE_VERSION;             // Function Pie version
  gSutraInitializeFloatExpressionPieDesc.vendor :=  Vendor;                           // vendor
  gSutraInitializeFloatExpressionPieDesc.product := Product;                          // product
  gSutraInitializeFloatExpressionPieDesc.name  := 'Sutra_InitializeFloatExpression';                            // function name
  gSutraInitializeFloatExpressionPieDesc.PieType :=  kFunctionPIE;                    // Pie type
  gSutraInitializeFloatExpressionPieDesc.descriptor := @gSutraInitializeFloatExpressionFunctionPieDesc;         // function PIE descriptor address

  Assert(numNames < kMaxPIEDesc);
  gPIEDesc[numNames] := @gSutraInitializeFloatExpressionPieDesc;                      // add descriptor to list
  Inc(numNames);	                                             // increment number of names

  // Get Morphed Element Value Pie descriptor
  gSutraGetMorphedElementValueFunctionPieDesc.version := FUNCTION_PIE_VERSION;       // Function PIE verions
  gSutraGetMorphedElementValueFunctionPieDesc.functionFlags := UsualOptions ;   // Function options
  gSutraGetMorphedElementValueFunctionPieDesc.name := 'Sutra_GetMorphedElementValue';                       // Function name
  gSutraGetMorphedElementValueFunctionPieDesc.address := GetMorphedElementValue;                 // Function address
  gSutraGetMorphedElementValueFunctionPieDesc.returnType := kPIEFloat;              // return type
  gSutraGetMorphedElementValueFunctionPieDesc.numParams := 2;                        // number of parameters;
  gSutraGetMorphedElementValueFunctionPieDesc.numOptParams := 0;                      // number of optional parameters;
  gSutraGetMorphedElementValueFunctionPieDesc.paramNames := @gpnElementExpression;                     // paramter names
  gSutraGetMorphedElementValueFunctionPieDesc.paramTypes := @gOneIntegerStringTypes;                      // parameter types
  gSutraGetMorphedElementValueFunctionPieDesc.neededProject := Project;               // needed project

  gSutraGetMorphedElementValuePieDesc.version := ANE_PIE_VERSION;             // Function Pie version
  gSutraGetMorphedElementValuePieDesc.vendor :=  Vendor;                           // vendor
  gSutraGetMorphedElementValuePieDesc.product := Product;                          // product
  gSutraGetMorphedElementValuePieDesc.name  := 'Sutra_GetMorphedElementValue';                            // function name
  gSutraGetMorphedElementValuePieDesc.PieType :=  kFunctionPIE;                    // Pie type
  gSutraGetMorphedElementValuePieDesc.descriptor := @gSutraGetMorphedElementValueFunctionPieDesc;         // function PIE descriptor address

  Assert(numNames < kMaxPIEDesc);
  gPIEDesc[numNames] := @gSutraGetMorphedElementValuePieDesc;                      // add descriptor to list
  Inc(numNames);	                                             // increment number of names

  // Get Morphed Element Angle Value Pie descriptor
  gSutraGetMorphedElementAngleValueFunctionPieDesc.version := FUNCTION_PIE_VERSION;       // Function PIE verions
  gSutraGetMorphedElementAngleValueFunctionPieDesc.functionFlags := UsualOptions ;   // Function options
  gSutraGetMorphedElementAngleValueFunctionPieDesc.name := 'Sutra_GetMorphedElementAngleValue';                       // Function name
  gSutraGetMorphedElementAngleValueFunctionPieDesc.address := GetMorphedElementAngleValue;                 // Function address
  gSutraGetMorphedElementAngleValueFunctionPieDesc.returnType := kPIEFloat;              // return type
  gSutraGetMorphedElementAngleValueFunctionPieDesc.numParams := 2;                        // number of parameters;
  gSutraGetMorphedElementAngleValueFunctionPieDesc.numOptParams := 0;                      // number of optional parameters;
  gSutraGetMorphedElementAngleValueFunctionPieDesc.paramNames := @gpnElementExpression;                     // paramter names
  gSutraGetMorphedElementAngleValueFunctionPieDesc.paramTypes := @gOneIntegerStringTypes;                      // parameter types
  gSutraGetMorphedElementAngleValueFunctionPieDesc.neededProject := Project;               // needed project

  gSutraGetMorphedElementAngleValuePieDesc.version := ANE_PIE_VERSION;             // Function Pie version
  gSutraGetMorphedElementAngleValuePieDesc.vendor :=  Vendor;                           // vendor
  gSutraGetMorphedElementAngleValuePieDesc.product := Product;                          // product
  gSutraGetMorphedElementAngleValuePieDesc.name  := 'Sutra_GetMorphedElementAngleValue';                            // function name
  gSutraGetMorphedElementAngleValuePieDesc.PieType :=  kFunctionPIE;                    // Pie type
  gSutraGetMorphedElementAngleValuePieDesc.descriptor := @gSutraGetMorphedElementAngleValueFunctionPieDesc;         // function PIE descriptor address

  Assert(numNames < kMaxPIEDesc);
  gPIEDesc[numNames] := @gSutraGetMorphedElementAngleValuePieDesc;                      // add descriptor to list
  Inc(numNames);	                                             // increment number of names

  // Get Z Count Pie descriptor
  gSutraGetZCountFunctionPieDesc.version := FUNCTION_PIE_VERSION;       // Function PIE verions
  gSutraGetZCountFunctionPieDesc.functionFlags := UsualOptions ;   // Function options
  gSutraGetZCountFunctionPieDesc.name := 'Sutra_GetZCount';                       // Function name
  gSutraGetZCountFunctionPieDesc.address := GetZCount;                 // Function address
  gSutraGetZCountFunctionPieDesc.returnType := kPIEInteger;              // return type
  gSutraGetZCountFunctionPieDesc.numParams := 0;                        // number of parameters;
  gSutraGetZCountFunctionPieDesc.numOptParams := 0;                      // number of optional parameters;
  gSutraGetZCountFunctionPieDesc.paramNames := nil;                     // paramter names
  gSutraGetZCountFunctionPieDesc.paramTypes := nil;                      // parameter types
  gSutraGetZCountFunctionPieDesc.neededProject := Project;               // needed project

  gSutraGetZCountPieDesc.version := ANE_PIE_VERSION;             // Function Pie version
  gSutraGetZCountPieDesc.vendor :=  Vendor;                           // vendor
  gSutraGetZCountPieDesc.product := Product;                          // product
  gSutraGetZCountPieDesc.name  := 'Sutra_GetZCount';                            // function name
  gSutraGetZCountPieDesc.PieType :=  kFunctionPIE;                    // Pie type