unit GetTypesUnit;

interface

{GetTypesUnit defines the class TModflowTypesClass which is used in the
 creation of layers, parameters, and other classes during execution of the
 PIE. Because all of the methods are virtual, they can be overridden in a
 descendent class to provide additional functionality. Customized versions
 of the PIE should use this mechanism when changing layer or parameter
 characteristics.}

uses ModflowLayerClassTypes, ModflowParameterClassTypes,
     ModflowParameterListClassTypes, ModflowUnit, MFLayerStructureUnit,
     MFPrescribedHead, MFBottom, MFDomainOut,
     MFDrain, MFEvapo, MFGenHeadBound, MFGrid, MFGridDensity, MFHydraulicCond,
     MFInactive, MFInitialHead, MFMap, MFMOCInitConc, MFMOCObsWell,
     MFMOCParticleRegen, MFMOCPorosity, MFRecharge, MFRechConc, MFRiver,
     MFSpecStor, MFSpecYield, MFTop, MFWells, MFWetting, MFGroupLayerUnit,
     MFStreamUnit, MFHorFlowBarrier, MFFlowAndHeadBound, MFMODPATHUnit,
     MFZoneBud, MFModPathZone, MFGenParam,
     RunUnit, PostMODFLOW, MFModPathPost, MFMOCTransSubgrid, SelectPostFile,
     MFTransmissivity, MFVcont, MFConfStorage, WellDataUnit, WarningsUnit,
     MFMOCImPor, MFMOCLinExch, MFMOCDecay, MFMOCGrowth, MFMOCImInitConc,
     MFMOCRetardation, MFMOCDisDecay, MFMOCSorbDecay, MFMOCDisGrowth,
     MFMOCSorbGrowth, MFMultiplierUnit, MFZoneUnit, MFAnisotropy,
     MFHeadObservations, MFFluxObservationUnit, MFAdvectObservUnit, MFLakes,
     MFInterbedUnit, MFReservoir, MFSegEvap, MFDrainReturn, MF_HYDMOD_Unit,
     MFCHD, MF_HUF, MT3DLayerClasses, MT3DParameterClasses, MT3DDomainOutline,
     MT3DInactiveLayer, MT3DObservations, MFMOC_ParticleObservations,
     MT3DTimeVaryConc, MT3DInitConc, MT3DPostProc,
     MT3DGeneralParameters, MT3DParameterListClasses, MT3DBulkDensity,
     MT3DSorption, MT3DReaction, MT3DMassFlux, MF_MNW, MF_DAFLOW,
     MF_HUF_RefSurf, MFSubsidence, MFDensity, MFMOCInitialParticles,
     MF_GWT_CBDY, MF_GWM_Flux, MF_GWM_HeadConstraint, MF_GWM_DrawdownConstraint,
     MF_GWM_HeadDifference, MF_GWM_Gradient, MF_GWM_StreamFlow,
     MF_GWM_StreamDepletion, MFUnsaturatedZoneFlow, Mt3dMolecularDiffusion,
     MF_SWT, MfMt3dConcentrationObservationUnit, MF_SW_Viscosity, MF_MNW2,
  MF_GWM_StateVariables, MFMOCConstConc, MFMOC_VolumeBalancing;

type
  TModflowFormClass = class of TfrmMODFLOW;
  TRunModflowClass = class of TfrmRun;
  TPostModflowClass = class of TfrmMODFLOWPostProcessing;
  TSelectPostFileClass = class of TfrmSelectPostFile;
  TWellDataFormClass = class of TfrmWellData;
  TWarningsFormClass = class of TfrmWarnings;

type
  TModflowLayerStructureClass = class of TMFLayerStructure;
  TMFGeologicUnitClass = class of TMFGeologicUnit;
  TMultiplierListClass = class of TMultiplierList;
  TZoneListClass = class of TZoneList;
  TObservationGroupListClass = class of TObservationGroupList;
  TObservationListClass = class of TObservationList;
  TWeightedObservationListClass = class of TWeightedObservationList;
  TGHBFluxObsListClass = class of TGHBFluxObsList;
  TDrainFluxObsListClass = class of TDrainFluxObsList;
  TDrainReturnFluxObsListClass = class of TDrainReturnFluxObsList;
  TRiverFluxObsListClass = class of TRiverFluxObsList;
  TSpecifiedHeadFluxObsListClass = class of TSpecifiedHeadFluxObsList;
  TAdvectionStartingObsListClass = class of TAdvectionStartingList;
  TAdvectionObservationListClass = class of TAdvectionObservationList;
  TLakeLeakanceListClass = class of TLakeLeakanceList;
  TWeightedConcentrationClass = class of TWeightedConcentrationList;

  // TModflowTypesClass is a class used to return class types used in creating
  // forms, layers, parameters, layerlists, etc. This gives it a central role
  // in the MODFLOW PIE. These functions may be overriden or replaced in
  // customized versions of the PIE. Overriding these functions is the best
  // way to replace a class with a descendent of that class in a customized
  // version of the PIE.
  TModflowTypesClass = Class(Tobject)
    // form types
    function GetModflowFormType : TModflowFormClass; virtual;
    function GetRunModflowType : TRunModflowClass; virtual;
    function GetPostModflowType : TPostModflowClass; virtual;
    function GetSelectPostFileType : TSelectPostFileClass; virtual;
    function GetWellDataFormType : TWellDataFormClass; virtual;
    function GetWarningsFormType : TWarningsFormClass; virtual;
    // misc
    function GetModflowLayerStructureType : TModflowLayerStructureClass;  virtual;
    function GetGeologicUnitType : TMFGeologicUnitClass; virtual;
    function GetMultiplierListType : TMultiplierListClass; virtual;
    function GetZoneListType : TZoneListClass; virtual;
    function GetObservationGroupListType : TObservationGroupListClass; virtual;
    function GetObservationListType : TObservationListClass; virtual;
    function GetWeightedObservationListType : TWeightedObservationListClass; virtual;
    function GetGHBFluxObsListType : TGHBFluxObsListClass; virtual;
    function GetDrainFluxObsListType : TDrainFluxObsListClass; virtual;
    function GetRiverFluxObsListType : TRiverFluxObsListClass; virtual;
    function GetSpecifiedHeadFluxObsListType : TSpecifiedHeadFluxObsListClass; virtual;
    function GetAdvectionStartingObsListType : TAdvectionStartingObsListClass; virtual;
    function GetAdvectionObservationListType : TAdvectionObservationListClass; virtual;
    function GetLakeLeakanceListType : TLakeLeakanceListClass; virtual;
    function GetWeightedConcentrationListType : TWeightedConcentrationClass; virtual;


    function GetDrainReturnFluxObsListType : TDrainReturnFluxObsListClass; virtual;
    // Layer types
    function GetMFGeolUnitGroupLayerType : TMFGeolUnitGroupLayerClass ;   virtual;
    function GetBottomElevLayerType : TBottomElevLayerClass;              virtual;
    function GetMFDomainOutType : TMFDomainOutLayerClass;                 virtual;
    function GetLineDrainLayerType : TMFLineDrainLayerClass;              virtual;
    function GetAreaDrainLayerType : TMFAreaDrainLayerClass;              virtual;
    function GetETLayerType : TMFETLayerClass;                            virtual;
    function GetPointGHBLayerType : TMFPointGHBLayerClass;                virtual;
    function GetLineGHBLayerType : TMFLineGHBLayerClass;                  virtual;
    function GetAreaGHBLayerType : TMFAreaGHBLayerClass;                  virtual;
    function GetGridLayerType : TMFGridLayerClass;                        virtual;
    function GetDensityLayerType : TMFDensityLayerClass;                  virtual;
    function GetHydraulicCondLayerType : TMFHydraulicCondLayerClass;      virtual;
    function GetInactiveLayerType : TMFInactiveLayerClass;                virtual;
    function GetInitialHeadLayerType : TMFInitialHeadLayerClass;          virtual;
    function GetMapLayerType : TMFMapLayerClass;                          virtual;
    function GetMOCInitialConcLayerType : TMOCInitialConcLayerClass;      virtual;
    function GetMOCObsWellLayerType : TMOCObsWellLayerClass;              virtual;
    function GetMOCParticleRegenLayerType : TMOCParticleRegenLayerClass;  virtual;
    function GetMOCPorosityLayerType : TMOCPorosityLayerClass;            virtual;
    function GetPrescribedHeadLayerType : TMFPrescribedHeadLayerClass;    virtual;
    function GetRechargeLayerType : TMFRechargeLayerClass;                virtual;
    function GetMOCRechargeConcLayerType : TMOCRechargeConcLayerClass;    virtual;
    function GetMFLineRiverLayerType : TMFLineRiverLayerClass;            virtual;
    function GetMFAreaRiverLayerType : TMFAreaRiverLayerClass;            virtual;
    function GetMFSpecStorageLayerType : TMFSpecStorageLayerClass;        virtual;
    function GetMFSpecYieldLayerType : TMFSpecYieldLayerClass;            virtual;
    function GetMFTopElevLayerType : TMFTopElevLayerClass;                virtual;
    function GetMFWellLayerType : TMFWellLayerClass;                      virtual;
    function GetMFWettingLayerType : TMFWettingLayerClass;                virtual;
    function GetMFStreamLayerType : TMFStreamLayerClass;                  virtual;
    function GetMFHFBLayerType : TMFHFBLayerClass;                        virtual;
    function GetMFPointFHBLayerType : TMFPointFHBLayerClass;              virtual;
    function GetMFLineFHBLayerType : TMFLineFHBLayerClass;                virtual;
    function GetMFAreaFHBLayerType : TMFAreaFHBLayerClass;                virtual;
    function GetMODPATHLayerType : TMODPATHLayerClass;                    virtual;
    function GetZoneBudLayerType: TZoneBudLayerClass;                     virtual;
    function GetMODPATHZoneLayerType: TMODPATHZoneLayerClass;             virtual;
    function GetMODPATHPostLayerType: TMODPATHPostLayerClass;             virtual;
    function GetMOCTransSubGridLayerType: TMOCTransSubGridLayerClass;     virtual;
    function GetMFPostProcessingGroupLayerType: TMFPostProcessingGroupLayerClass;     virtual;
    function GetMFTransmisivityLayerType: TMFTransmisivityLayerClass;     virtual;
    function GetMFVcontLayerType: TMFVcontLayerClass;     virtual;
    function GetMFConfStorageLayerType: TMFConfStorageLayerClass;     virtual;
    function GetMFMOCImPorosityLayerType: TMFMOCImPorosityLayerClass;     virtual;
    function GetMFMOCLinExchCoefLayerType: TMFMOCLinExchCoefLayerClass;     virtual;
    function GetMFMOCDecayCoefLayerType: TMFMOCDecayCoefLayerClass;     virtual;
    function GetMFMOCGrowthLayerType: TMFMOCGrowthLayerClass;     virtual;
    function GetMFMOCImInitConcLayerType: TMFMOCImInitConcLayerClass;     virtual;
    function GetMFMOCRetardationLayerType: TMFMOCRetardationLayerClass;     virtual;
    function GetMFMOCDisDecayCoefLayerType: TMFMOCDisDecayCoefLayerClass;     virtual;
    function GetMFMOCSorbDecayCoefLayerType: TMFMOCSorbDecayCoefLayerClass;     virtual;
    function GetMFMOCDisGrowthLayerType: TMFMOCDisGrowthLayerClass;     virtual;
    function GetMFMOCSorbGrowthLayerType: TMFMOCSorbGrowthLayerClass;     virtual;
    function GetMFMODPATHPostEndLayerType: TMFMODPATHPostEndLayerClass;     virtual;
    function GetMFPointDrainLayerType: TMFPointDrainLayerClass;     virtual;
    function GetMFPointRiverLayerType: TMFPointRiverLayerClass;     virtual;
    function GetMFMultiplierLayerType: TMFMultiplierLayerClass;     virtual;
    function GetMFMultiplierGroupLayerType: TMFMultiplierGroupLayerClass;     virtual;
    function GetMFZoneLayerType: TMFZoneLayerClass;     virtual;
    function GetMFZoneGroupLayerType: TMFZoneGroupLayerClass;     virtual;
    function GetMFAnistropyLayerType: TMFAnistropyLayerClass;     virtual;
    function GetMFLineWellLayerType : TMFLineWellLayerClass;                      virtual;
    function GetMFAreaWellLayerType : TMFAreaWellLayerClass;                      virtual;
    function GetMFHeadObservationsLayerType : TMFHeadObservationsLayerClass;                      virtual;
    function GetMFWeightedHeadObservationsLayerType : TMFWeightedHeadObservationsLayerClass;                      virtual;
    function GetMFObservationsGroupLayerType : TMFObservationsGroupLayerClass;                      virtual;
    function GetMFCustomFluxObservationsLayerType : TMFCustomFluxObservationsLayerClass;                      virtual;
    function GetMFGHBFluxObservationsLayerType : TMFGHBFluxObservationsLayerClass;                      virtual;
    function GetMFDrainFluxObservationsLayerType : TMFDrainFluxObservationsLayerClass;                      virtual;
    function GetMFRiverFluxObservationsLayerType : TMFRiverFluxObservationsLayerClass;                      virtual;
    function GetMFSpecifiedHeadFluxObservationsLayerType : TMFSpecifiedHeadFluxObservationsLayerClass;                      virtual;
    function GetMFAdvectionObservationsStartingLayerType : TMFAdvectionObservationsStartingLayerClass;                      virtual;
    function GetMFAdvectionObservationsLayerType : TMFAdvectionObservationsLayerClass;                      virtual;
    function GetMFLakeLayerType : TMFLakeLayerClass;                      virtual;
    function GetMFLakeBottomLayerType : TMFLakeBottomLayerClass;                      virtual;
    function GetMFLakeLeakanceLayerType : TMFLakeLeakanceLayerClass;                      virtual;
    function GetMFIBSLayerType : TMFIBSLayerClass;                      virtual;
    function GetMFReservoirLayerType : TMFReservoirLayerClass;                      virtual;
    function GetMF2KSimpleStreamLayerType : TMF2KSimpleStreamLayerClass; virtual;
    function GetMF2K8PointChannelStreamLayerType : TMF2K8PointChannelStreamLayerClass; virtual;
    function GetMF2KFormulaStreamLayerType : TMF2KFormulaStreamLayerClass; virtual;
    function GetMF2KTableStreamLayerType : TMF2KTableStreamLayerClass; virtual;
    function GetMFSegmentedETLayerType : TMFSegmentedETLayerClass; virtual;
    function GetMFLineDrainReturnLayerType : TMFLineDrainReturnLayerClass; virtual;
    function GetMFAreaDrainReturnLayerType : TMFAreaDrainReturnLayerClass; virtual;
    function GetMFPointDrainReturnLayerType : TMFPointDrainReturnLayerClass; virtual;
    function GetMFDrainReturnLayerType : TMFDrainReturnLayerClass; virtual;
    function GetMFDrainReturnFluxObservationsLayerType : TMFDrainReturnFluxObservationsLayerClass; virtual;
    function GetMFHydmodLayerType : TMFHydmodLayerClass; virtual;
    function GetMFPointLineCHD_LayerType : TMFPointLineCHD_LayerClass; virtual;
    function GetMFAreaCHD_LayerType : TMFAreaCHD_LayerClass; virtual;
    function GetMFHUF_LayerType : TMFHUF_LayerClass; virtual;
    function GetMFHUFGroupLayerType : TMFHufGroupLayerClass; virtual;
    function GetMFLakeGroupLayerType : TMFLakeGroupLayerClass; virtual;
    function GetMFMNW_LayerType : TMFMNW_LayerClass; virtual;
    function GetMFMNW_WaterQualityLayerType : TMFMNW_WaterQualityLayerClass; virtual;
    function GetMFDaflowLayerType : TMFDaflowLayerClass; virtual;
    function GetMFHUF_ReferenceSurfaceLayerClassType : TMFHUF_ReferenceSurfaceLayerClass; virtual;
    function GetMFNoDelaySubsidenceLayerType : TMFNoDelaySubsidenceLayerClass ; virtual;
    function GetMFDelaySubsidenceLayerType : TMFDelaySubsidenceLayerClass ; virtual;
    function GetFluidDensityLayerType : TMFFluidDensityLayerClass ; virtual;
    function GetMOCInitialParticlePlacementLayerType : TMFMOCInitialParticlePlacementLayerClass ; virtual;
    function GetMOCUpperBoundaryConcentrationLayerType : TMFMOCUpperBoundaryConcentrationLayerClass ; virtual;
    function GetMOCLowerBoundaryConcentrationLayerType : TMFMOCLowerBoundaryConcentrationLayerClass ; virtual;
    function GetMOCLateralBoundaryConcentrationLayerType : TMFLateralBoundaryConcentrationLayerClass ; virtual;

    function GetMF_SWT_GroupLayerType : TMFSWT_GroupLayerClass ; virtual;
    function GetMFGeostaticStressLayerType : TMFGeostaticStressLayerClass ; virtual;
    function GetMFSpecificGravityLayerType : TMFSpecificGravityLayerClass ; virtual;
    function GetMFSwtUnitLayerType : TMFSwtUnitLayerClass ; virtual;
    function GetGWT_TimeVaryConcLayerType : TGWT_TimeVaryConcLayerClass ; virtual;
    function GetGWT_VolumeBalancingLayerClass: TGWT_VolumeBalancingLayerClass;

// begin MT3D
    // MT3D Layers
    function GetMT3DDomOutlineLayerType : TMT3DDomOutlineLayerClass; virtual;
    function GetMT3DInactiveAreaLayerType : TMT3DInactiveAreaLayerClass; virtual;
    function GetMT3DObservationsLayerType : TMT3DObservationsLayerClass; virtual;
    function GetMT3DAreaTimeVaryConcLayerType : TMT3DAreaTimeVaryConcLayerClass; virtual;
    function GetMT3DPointInitConcLayerType : TMT3DPointInitConcLayerClass; virtual;
    function GetMT3DAreaInitConcLayerType : TMT3DAreaInitConcLayerClass; virtual;
    function GetMT3DDataLayerType : TMT3DDataLayerClass ; virtual;
    function GetMT3DPostProcessChartLayerType : TMT3DPostProcessChartLayerClass ; virtual;
    function GetMT3DBulkDensityLayerType : TMT3DBulkDensityLayerClass ; virtual;
    function GetMT3DSorptionLayerType : TMT3DSorptionLayerClass ; virtual;
    function GetMT3DReactionLayerType : TMT3DReactionLayerClass ; virtual;
    function GetMT3DMassFluxLayerType : TMT3DMassFluxLayerClass ; virtual;
    function GetMT3DWeightedConcentrationObservationsLayerType : TMFWeightedConcentrationObservationsLayerClass ; virtual;


// end MT3D
    function GetMFFluxVariableLayerType : TMFFluxVariableLayerClass ; virtual;
    function GetMFHeadConstraintLayerType : TMFHeadConstraintLayerClass ; virtual;
    function GetMFDrawdownConstraintLayerType : TMFDrawdownConstraintLayerClass ; virtual;
    function GetMFHeadDifferenceLayerType : TMFHeadDifferenceLayerClass ; virtual;
    function GetMFGradientLayerType : TMFGradientLayerClass ; virtual;
    function GetMFStreamConstraintLayerType : TMFStreamConstraintLayerClass ; virtual;
    function GetMFStreamDepletionConstraintLayerType : TMFStreamDepletionConstraintLayerClass ; virtual;
    function GetMFMoc3dParticleObsLayerType : TMFMoc3dParticleObsLayerClass ; virtual;

    function GetMFUzfFlowLayerType : TMFUzfFlowLayerClass ; virtual;
    function GetMFUzfLayerLayerType : TMFUzfLayerLayerClass ; virtual;
    function GetMFUzfStreamLakeLayerType : TMFUzfStreamLakeLayerClass ; virtual;
    function GetMFUzfOutputLayerType : TMFUzfOutputLayerClass ; virtual;
    function GetMFUzfGroupLayerType : TMFUzfGroupLayerClass ; virtual;
    function GetMFMT3DMolecularDiffusionLayerType : TMT3DMolecularDiffusionLayerClass ; virtual;
    function GetMFViscosityLayerType : TMFViscosityLayerClass ; virtual;
    function GetMFMNW2_VerticalWellLayerType : TMFMNW2_VerticalWellLayerClass ; virtual;
    function GetMFMNW2_GeneralWellLayerType : TMFMNW2_GeneralWellLayerClass ; virtual;

    function GetMFGwmHeadStateLayerType : TMFGwmHeadStateLayerClass ; virtual;
    function GetMFGwmStreamStateLayerType : TMFGwmStreamStateLayerClass ; virtual;
    function GetMFGwmStorageStateLayerType : TMFGwmStorageStateLayerClass ; virtual;

    // Parameter List types
    function GetMFDrainTimeParamListType : TMFDrainTimeParamListClass;                  virtual;
    function GetETTimeParamListType : TMFETTimeParamListClass;                          virtual;
    function GetGHBTimeParamListType : TMFGHBTimeParamListClass;                        virtual;
    function GetMFGeologicUnitParametersType : TMFGeologicUnitParametersClass;          virtual;
    function GetMOCElevParamListType : TMOCElevParamListClass;                          virtual;
    function GetMFRechElevParamListType : TMFRechargeTimeParamListClass;                virtual;
    function GetMOCRechargeConcTimeParamListType : TMOCRechargeConcTimeParamListClass;  virtual;
    function GetMFRiverTimeParamListType : TMFRiverTimeParamListClass;                  virtual;
    function GetMFWellTimeParamListType : TMFWellTimeParamListClass;                    virtual;
    function GetMFStreamTimeParamListType : TMFStreamTimeParamListClass;                virtual;
    function GetMFFHBPointTimeParamListType : TMFFHBPointTimeParamListClass;            virtual;
    function GetMFFHBLineTimeParamListType : TMFFHBLineTimeParamListClass;              virtual;
    function GetMFFHBAreaTimeParamListType : TMFFHBAreaTimeParamListClass;              virtual;
    function GetMFMODPATHTimeParamListType : TMFMODPATHTimeParamListClass;              virtual;
    function GetMFMOCLinExchCoefTimeParamListType : TMFMOCLinExchCoefTimeParamListClass;              virtual;
    function GetMFMOCDecayCoefTimeParamListType : TMFMOCDecayCoefTimeParamListClass;              virtual;
    function GetMFMOCGrowthTimeParamListType : TMFMOCGrowthTimeParamListClass;              virtual;
    function GetMFMOCDisDecayCoefTimeParamListType : TMFMOCDisDecayCoefTimeParamListClass;              virtual;
    function GetMFMOCSorbDecayCoefTimeParamListType : TMFMOCSorbDecayCoefTimeParamListClass;              virtual;
    function GetMFMOCDisGrowthTimeParamListType : TMFMOCDisGrowthTimeParamListClass;              virtual;
    function GetMFMOCSorbGrowthTimeParamListType : TMFMOCSorbGrowthTimeParamListClass;              virtual;
    function GetMFMultiplierParamListType : TMFMultiplierParamListClass;              virtual;
    function GetMFZoneParamListType : TMFZoneParamListClass;              virtual;
    function GetMFLineAreaWellTimeParamListType : TMFLineAreaWellTimeParamListClass;              virtual;
    function GetMFHeadObservationParamListType : TMFHeadObservationParamListClass;              virtual;
    function GetMFWeightParamListType : TMFWeightParamListClass;              virtual;
    function GetMFGHBFluxObservationParamListType : TMFGHBFluxObservationParamListClass;              virtual;
    function GetMFDrainFluxObservationParamListType : TMFDrainFluxObservationParamListClass;              virtual;
    function GetMFRiverFluxObservationParamListType : TMFRiverFluxObservationParamListClass;              virtual;
    function GetMFSpecifiedHeadFluxObservationParamListType : TMFSpecifiedHeadFluxObservationParamListClass;              virtual;
    function GetMFLakeTimeParamListType : TMFLakeTimeParamListClass;              virtual;
    function GetMFReservoirTimeParamListType : TMFReservoirTimeParamListClass;              virtual;
    function GetMF2KSimpleStreamTimeParamListType : TMF2KSimpleStreamTimeParamListClass;              virtual;
    function GetMF2K8PointChannelStreamTimeParamListType : TMF2K8PointChannelStreamTimeParamListClass;              virtual;
    function GetMF2KTableStreamTimeParamListType : TMF2KTableStreamTimeParamListClass;              virtual;
    function GetMF2KStreamCrossSectionParamListType : TMF2KStreamCrossSectionParamListClass;              virtual;
    function GetMF2KStreamTableParamListType : TMF2KStreamTableParamListClass;              virtual;
    function GetMF2KStreamFormulaTimeParamListType : TMF2KStreamFormulaTimeParamListClass;              virtual;
    function GetMFStreamObservationParamListType : TMFStreamObservationParamListClass;              virtual;
    function GetMFSegET_IntermediateDepthsParamListType : TMFSegET_IntermediateDepthsParamListClass;              virtual;
    function GetMFSegETTimeParamListType : TMFSegETTimeParamListClass;              virtual;
    function GetMFDrainReturnTimeParamListType : TMFDrainReturnTimeParamListClass;              virtual;
    function GetMFDrainReturnFluxObservationParamListType : TMFDrainReturnFluxObservationParamListClass;              virtual;
    function GetMFCHD_TimeParamListType : TMFCHD_TimeParamListClass;              virtual;
    function GetMFMNW_TimeParamListType : TMFMNW_TimeParamListClass;              virtual;
    function GetMFMNW_WaterQualityTimeParamListType : TMFMNW_WaterQualityTimeParamListClass;              virtual;
    function GetMFDaflowTimeParamListType : TMFDaflowTimeParamListClass;              virtual;
    function GetMFNoDelayIndexedParamListType : TMFNoDelayIndexedParamListClass;              virtual;
    function GetMFDelayIndexedParamListType : TMFDelayIndexedParamListClass;              virtual;
    function GetMFFluidDensityTimeParamListType : TMFFluidDensityTimeParamListClass;              virtual;
    function GetMFGWM_TimeParamListType : TMFGWM_TimeParamListClass;              virtual;
    function GetMFUzfTimeParamListType : TMFUzfTimeParamListClass;              virtual;
    function GetMFSwtIndexedParamListType : TMFSwtIndexedParamListClass; virtual;
    function GetMFConcentrationObservationParamListType : TMFConcentrationObservationParamListClass; virtual;
    function GetMFConcWeightParamListType : TMFConcWeightParamListClass; virtual;
    function GetMFViscosityParamListType : TMFViscosityParamListClass; virtual;
    function GetMFMNW2_WellScreenParamListType : TMFMNW2_WellScreenParamListClass; virtual;
    function GetMFMNW2_TimeParamListType : TMFMNW2_TimeParamListClass; virtual;
    function GetMFLeakConductanceParamListType : TMFLeakConductanceParamListClass; virtual;
    function GetMFGwmStressPeriodParamListType : TMFGwmStressPeriodParamListClass; virtual;
    function GetGWT_TimeVaryConcTimeParamList : TGWT_TimeVaryConcTimeParamListClass; virtual;



// begin MT3D
    // MT3D parameter lists
    function GetMT3DPrescribedHeadTimeParamListType : TMT3DPrescribedHeadTimeParamListClass; virtual;
//    function GetMT3DPointTimeVaryConcTimeParamListType : TMT3DPointTimeVaryConcTimeParamListClass; virtual;
    function GetMT3DTimeVaryConcTimeParamListType : TMT3DTimeVaryConcTimeParamListClass; virtual;
    function GetMFFHBMT3DConcTimeParamListType : TMFFHBMT3DConcTimeParamListClass; virtual;
    function GetMT3DMassFluxTimeParamListType : TMT3DMassFluxTimeParamListClass; virtual;    
// end MT3D

    // Parameter types
    function GetMFBottomElevParamType : TMFBottomElevParamClass;                 virtual;
    function GetMFDomDensityParamType : TMFDomDensityParamClass;                 virtual;
    function GetMFDrainElevationParamType : TMFDrainElevationParamClass;         virtual;
    function GetMFDrainOnParamType : TMFDrainOnParamClass;                       virtual;
    function GetMFETSurfaceParamType : TMFETSurfaceParamClass;                   virtual;
    function GetMFETExtDepthParamType : TMFETExtDepthParamClass;                 virtual;
    function GetMFETExtFluxParamType : TMFETExtFluxParamClass;                   virtual;
    function GetMFFHBPointAreaHeadParamType : TMFFHBPointAreaHeadParamClass;     virtual;
    function GetMFFHBPointFluxParamType : TMFFHBPointFluxParamClass;             virtual;
    function GetMFFHBTopElevParamType : TMFFHBTopElevParamClass;                 virtual;
    function GetMFFHBBotElevParamType : TMFFHBBotElevParamClass;                 virtual;
    function GetMFFHBHeadConcParamType : TMFHBHeadConcParamClass;                virtual;
    function GetMFFHBFluxConcParamType : TMFHBFluxConcParamClass;                virtual;
    function GetMFFHBLineHeadStartParamType : TMFHBLineHeadStartParamClass;      virtual;
    function GetMFFHBLineHeadEndParamType : TMFHBLineHeadEndParamClass;          virtual;
    function GetMFFHBLineFluxParamType : TMFHBLineFluxParamClass;                virtual;
    function GetMFFHBAreaFluxParamType : TMFHBAreaFluxParamClass;                virtual;
    function GetMFGHBHeadParamType : TMFGHBHeadParamClass;                       virtual;
    function GetMFConcentrationParamType : TMFConcentrationParamClass;           virtual;
    function GetMFConductanceParamType : TMFConductanceParamClass;               virtual;
    function GetMFIFACEParamType : TMFIFACEParamClass;                           virtual;
    function GetMFGridETSurfParamType : TMFGridETSurfParamClass;                 virtual;
    function GetMFGridRechElevParamType : TMFGridRechElevParamClass;             virtual;
    function GetMFIBoundGridParamType : TMFIBoundGridParamClass;                 virtual;
    function GetMFGridTopElevParamType : TMFGridTopElevParamClass;               virtual;
    function GetMFGridBottomElevParamType : TMFGridBottomElevParamClass;         virtual;
    function GetMFGridThicknessParamType : TMFGridThicknessParamClass;           virtual;
    function GetMFGridInitialHeadParamType : TMFGridInitialHeadParamClass;       virtual;
    function GetMFGridKxParamType : TMFGridKxParamClass;                         virtual;
    function GetMFGridKzParamType : TMFGridKzParamClass;                         virtual;
    function GetMFGridSpecYieldParamType : TMFGridSpecYieldParamClass;           virtual;
    function GetMFGridSpecStorParamType : TMFGridSpecStorParamClass;             virtual;
    function GetMFGridWettingParamType : TMFGridWettingParamClass;               virtual;
    function GetMFGridWellParamType : TMFGridWellParamClass;                     virtual;
    function GetMFGridRiverParamType : TMFGridRiverParamClass;                   virtual;
    function GetMFGridDrainParamType : TMFGridDrainParamClass;                   virtual;
    function GetMFGridGHBParamType : TMFGridGHBParamClass;                       virtual;
    function GetMFGridFHBParamType : TMFGridFHBParamClass;                            virtual;
    function GetMFGridHFBParamType : TMGridHFBParamClass;                             virtual;
    function GetMFGridStreamParamType : TMFGridStreamParamClass;                      virtual;
    function GetMFGridMOCInitConcParamType : TMFGridMOCInitConcParamClass;            virtual;
    function GetMFGridMOCSubGridParamType : TMFGridMOCSubGridParamClass;              virtual;
    function GetMFGridMOCParticleRegenParamType : TMFGridMOCParticleRegenParamClass;  virtual;
    function GetMFGridMOCPorosityParamType : TMFGridMOCPorosityParamClass;            virtual;
    function GetMFGridZoneBudgetParamType : TMFGridZoneBudgetParamClass;              virtual;
    function GetMFGridModpathZoneParamType : TMFGridModpathZoneParamClass;            virtual;
    function GetMFDensityParamType : TMFDensityParamClass;                            virtual;
    function GetMFHFBHydCondParamType : TMFHFBHydCondParamClass;                      virtual;
    function GetMFHFBBarrierThickParamType : TMFHFBBarrierThickParamClass;            virtual;
    function GetMFKxParamType : TMFKxParamClass;                                      virtual;
    function GetMFKzParamType : TMFKzParamClass;                                      virtual;
    function GetMFInactiveParamType : TMFInactiveParamClass;                          virtual;
    function GetMFInitialHeadParamType : TMFInitialHeadParamClass;                    virtual;
    function GetMFMOCInitialConcParamType : TMFMOCInitialConcParamClass;              virtual;
    function GetMFMOCObsElevParamType : TMFMOCObsElevParamClass;                      virtual;
    function GetMFMOCParticleRegenParamType : TMFMOCParticleRegenParamClass;          virtual;