unit MFGrid;

interface

{MFGrid defines the "MODFLOW FD Grid" layer
 and associated parameters and Parameterlists.}

uses ANE_LayerUnit;

type
  TGridETSurf = class(T_ANE_GridParam)
    class function ANE_ParamName: string; override;
    function Value: string; override;
    function Units: string; override;
  end;

  TGridETExtinctionDepth = class(T_ANE_GridParam)
    class function ANE_ParamName: string; override;
    function Value: string; override;
    function Units: string; override;
  end;

  TGridETLayerParam = class(T_ANE_GridParam)
    class function ANE_ParamName: string; override;
    function Value: string; override;
    function Units: string; override;
    constructor Create(
      AParameterList: T_ANE_ParameterList; Index: Integer = -1); override;
  end;

  TGridETS_Surface = class(TGridETSurf)
    class function ANE_ParamName: string; override;
    function Value: string; override;
  end;

  TGridETS_ExtinctDepth = class(TGridETExtinctionDepth)
    class function ANE_ParamName: string; override;
    function Value: string; override;
  end;

  TGridETS_Layer = class(TGridETLayerParam)
    class function ANE_ParamName: string; override;
    function Value: string; override;
  end;

  TGridRechElev = class(T_ANE_GridParam)
    class function ANE_ParamName: string; override;
    function Value: string; override;
    function Units: string; override;
  end;

  TGridRechLayerParam = class(T_ANE_GridParam)
    class function ANE_ParamName: string; override;
    function Value: string; override;
    function Units: string; override;
    constructor Create(AParameterList: T_ANE_ParameterList;
      Index: Integer = -1); override;
  end;

  TGridResElev = class(T_ANE_GridParam)
    class function ANE_ParamName: string; override;
    function Value: string; override;
    function Units: string; override;
  end;

  TGridResKz = class(T_ANE_GridParam)
    class function ANE_ParamName: string; override;
    function Value: string; override;
    function Units: string; override;
  end;

  TGridResThickness = class(T_ANE_GridParam)
    class function ANE_ParamName: string; override;
    function Value: string; override;
    function Units: string; override;
  end;

  TIBoundGridParam = class(T_ANE_GridParam)
    constructor Create(AParameterList: T_ANE_ParameterList;
      Index: Integer); override;
    class function ANE_ParamName: string; override;
    function Value: string; override;
    function Units: string; override;
  end;

  TGridTopElev = class(T_ANE_GridParam)
    class function ANE_ParamName: string; override;
    function Value: string; override;
    function Units: string; override;
  end;

  TGridBottomElev = class(T_ANE_GridParam)
    class function ANE_ParamName: string; override;
    function Value: string; override;
    function Units: string; override;
  end;

  TGridThickness = class(T_ANE_GridParam)
    class function ANE_ParamName: string; override;
    function Value: string; override;
    function Units: string; override;
  end;

  TGridInitialHead = class(T_ANE_GridParam)
    class function ANE_ParamName: string; override;
    function Value: string; override;
    function Units: string; override;
  end;

  TGridKx = class(T_ANE_GridParam)
    class function ANE_ParamName: string; override;
    function Value: string; override;
    function Units: string; override;
  end;

  TGridKz = class(T_ANE_GridParam)
    class function ANE_ParamName: string; override;
    function Value: string; override;
    function Units: string; override;
  end;

  TGridAniso = class(T_ANE_GridParam)
    class function ANE_ParamName: string; override;
    function Value: string; override;
  end;

  TGridTrans = class(T_ANE_GridParam)
    class function ANE_ParamName: string; override;
    function Value: string; override;
    function Units: string; override;
  end;

  TGridVCont = class(T_ANE_GridParam)
    class function ANE_ParamName: string; override;
    function Value: string; override;
    function Units: string; override;
  end;

  TGridSpecYield = class(T_ANE_GridParam)
    class function ANE_ParamName: string; override;
    function Value: string; override;
    function Units: string; override;
  end;

  TGridSpecStor = class(T_ANE_GridParam)
    class function ANE_ParamName: string; override;
    function Value: string; override;
    function Units: string; override;
  end;

  TGridConfStor = class(T_ANE_GridParam)
    class function ANE_ParamName: string; override;
    function Value: string; override;
    //    function Units : string; override;
  end;

  TGridWetting = class(T_ANE_GridParam)
    class function ANE_ParamName: string; override;
    function Value: string; override;
  end;

  TGridWell = class(T_ANE_GridParam)
    constructor Create(AParameterList: T_ANE_ParameterList;
      Index: Integer); override;
    class function ANE_ParamName: string; override;
    function Value: string; override;
  end;

  TGridRiver = class(T_ANE_GridParam)
    constructor Create(AParameterList: T_ANE_ParameterList;
      Index: Integer); override;
    class function ANE_ParamName: string; override;
    function Value: string; override;
  end;

  TGridDrain = class(T_ANE_GridParam)
    constructor Create(AParameterList: T_ANE_ParameterList;
      Index: Integer); override;
    class function ANE_ParamName: string; override;
    function Value: string; override;
  end;

  TGridDrainReturn = class(TGridDrain)
    class function ANE_ParamName: string; override;
    function Value: string; override;
  end;

  TGridGHB = class(T_ANE_GridParam)
    constructor Create(AParameterList: T_ANE_ParameterList;
      Index: Integer); override;
    class function ANE_ParamName: string; override;
    function Value: string; override;
  end;

  TGridFHB = class(T_ANE_GridParam)
    constructor Create(AParameterList: T_ANE_ParameterList;
      Index: Integer); override;
    class function ANE_ParamName: string; override;
    function Value: string; override;
  end;

  TGridHFB = class(T_ANE_GridParam)
    constructor Create(AParameterList: T_ANE_ParameterList;
      Index: Integer); override;
    class function ANE_ParamName: string; override;
    function Value: string; override;
  end;

  TGridStream = class(T_ANE_GridParam)
    constructor Create(AParameterList: T_ANE_ParameterList;
      Index: Integer); override;
    class function ANE_ParamName: string; override;
    function Value: string; override;
  end;

  TGridSFR = class(T_ANE_GridParam)
    constructor Create(AParameterList: T_ANE_ParameterList;
      Index: Integer); override;
    class function ANE_ParamName: string; override;
    function Value: string; override;
  end;

  TGridCHD = class(T_ANE_GridParam)
    constructor Create(AParameterList: T_ANE_ParameterList;
      Index: Integer); override;
    class function ANE_ParamName: string; override;
    function Value: string; override;
  end;

  TGridMOCInitConc = class(T_ANE_GridParam)
    class function ANE_ParamName: string; override;
    function Value: string; override;
    function Units: string; override;
  end;

  TGridMOCPrescribedConcParam = class(T_ANE_GridParam)
    class function ANE_ParamName: string; override;
    function Value: string; override;
    function Units: string; override;
  end;

  TGridMOCSubGrid = class(T_ANE_GridParam)
    constructor Create(AParameterList: T_ANE_ParameterList;
      Index: Integer); override;
    class function ANE_ParamName: string; override;
    function Value: string; override;
  end;

  TGridMOCParticleRegen = class(T_ANE_GridParam)
    constructor Create(AParameterList: T_ANE_ParameterList;
      Index: Integer); override;
    class function ANE_ParamName: string; override;
    function Value: string; override;
  end;

  TGridMOCParticleLayerCount = class(T_ANE_GridParam)
    constructor Create(AParameterList: T_ANE_ParameterList;
      Index: Integer); override;
    class function ANE_ParamName: string; override;
    function Value: string; override;
  end;

  TGridMOCParticleRowCount = class(TGridMOCParticleLayerCount)
    class function ANE_ParamName: string; override;
    function Value: string; override;
  end;

  TGridMOCParticleColumnCount = class(TGridMOCParticleLayerCount)
    class function ANE_ParamName: string; override;
    function Value: string; override;
  end;

  TGridMocParticleLocation = class(T_ANE_GridParam)
    constructor Create(AParameterList: T_ANE_ParameterList;
      Index: Integer); override;
    class function ANE_ParamName: string; override;
    function Value: string; override;
  end;

  TGridMOCPorosity = class(T_ANE_GridParam)
    class function ANE_ParamName: string; override;
    function Value: string; override;
  end;

  TGridMocParticleObservation = class(T_ANE_GridParam)
    class function ANE_ParamName: string; override;
    function Value: string; override;
  end;

  TGridZoneBudget = class(T_ANE_GridParam)
  public
    class function ANE_ParamName: string; override;
    function Value: string; override;
  end;

  TGridModpathZone = class(T_ANE_GridParam)
  public
    constructor Create(AParameterList: T_ANE_ParameterList;
      Index: Integer); override;
    class function ANE_ParamName: string; override;
    function Value: string; override;
  end;

  TGridMultiplier = class(T_ANE_GridParam)
  public
    class function ANE_ParamName: string; override;
    function Value: string; override;
  end;

  TGridZone = class(T_ANE_GridParam)
  public
    constructor Create(AParameterList: T_ANE_ParameterList;
      Index: Integer); override;
    class function ANE_ParamName: string; override;
    function Value: string; override;
  end;

  TGridLakeLocation = class(T_ANE_GridParam)
  public
    constructor Create(AParameterList: T_ANE_ParameterList;
      Index: Integer); override;
    class function ANE_ParamName: string; override;
    function Value: string; override;
  end;

  TGridIbsPreconsolidationHead = class(T_ANE_GridParam)
  public
    class function ANE_ParamName: string; override;
    function Value: string; override;
  end;

  TGridIbsElasticStorage = class(T_ANE_GridParam)
  public
    class function ANE_ParamName: string; override;
    function Value: string; override;
  end;

  TGridIbsInelasticStorage = class(T_ANE_GridParam)
  public
    class function ANE_ParamName: string; override;
    function Value: string; override;
  end;

  TGridIbsStartingCompaction = class(T_ANE_GridParam)
  public
    class function ANE_ParamName: string; override;
    function Value: string; override;
  end;

  TGridMNW_Location = class(T_ANE_GridParam)
  public
    class function ANE_ParamName: string; override;
    function Value: string; override;
  end;

  TGridMT3DICBUND = class(T_ANE_GridParam)
    class function ANE_ParamName: string; override;
    constructor Create(AParameterList: T_ANE_ParameterList;
      Index: Integer); override;
    function Value: string; override;
    function Units: string; override;
  end;

  TGridMT3DActiveCell = class(T_ANE_GridParam)
    class function ANE_ParamName: string; override;
    constructor Create(AParameterList: T_ANE_ParameterList;
      Index: Integer); override;
    function Value: string; override;
    function Units: string; override;
  end;

  TCustomGridMT3DInitConcCell = class(T_ANE_GridParam)
    function ConcentrationParamString: string; virtual; abstract;
    function ConstantConcentrationString: string; virtual; abstract;
    function InitialConcentrationString: string; virtual; abstract;
    function MassParamString: string; virtual; abstract;
    function Units: string; override;
    function Value: string; override;
  end;

  TGridMT3DInitConcCell = class(TCustomGridMT3DInitConcCell)
    class function ANE_ParamName: string; override;
    function ConcentrationParamString: string; override;
    function ConstantConcentrationString: string; override;
    function InitialConcentrationString: string; override;
    function MassParamString: string; override;
    //    function Units : string; override;
    //    function Value : string; override;
  end;

  TGridMT3DInitConc2Cell = class(TGridMT3DInitConcCell)
    class function ANE_ParamName: string; override;
    function ConcentrationParamString: string; override;
    function ConstantConcentrationString: string; override;
    function InitialConcentrationString: string; override;
    function MassParamString: string; override;
  end;

  TGridMT3DInitConc3Cell = class(TGridMT3DInitConcCell)
    class function ANE_ParamName: string; override;
    function ConcentrationParamString: string; override;
    function ConstantConcentrationString: string; override;
    function InitialConcentrationString: string; override;
    function MassParamString: string; override;
  end;

  TGridMT3DInitConc4Cell = class(TGridMT3DInitConcCell)
    class function ANE_ParamName: string; override;
    function ConcentrationParamString: string; override;
    function ConstantConcentrationString: string; override;
    function InitialConcentrationString: string; override;
    function MassParamString: string; override;
  end;

  TGridMT3DInitConc5Cell = class(TGridMT3DInitConcCell)
    class function ANE_ParamName: string; override;
    function ConcentrationParamString: string; override;
    function ConstantConcentrationString: string; override;
    function InitialConcentrationString: string; override;
    function MassParamString: string; override;
  end;

  TGridMT3DTimeVaryConcCell = class(T_ANE_GridParam)
    class function ANE_ParamName: string; override;
    function Value: string; override;
  end;

  TGridMT3DMassFluxCell = class(T_ANE_GridParam)
    class function ANE_ParamName: string; override;
    function Value: string; override;
  end;

  TGridMT3DObsLocCell = class(T_ANE_GridParam)
    class function ANE_ParamName: string; override;
    function Value: string; override;
    function Units: string; override;
  end;

  TGridMT3DLongDispCell = class(T_ANE_GridParam)
    class function ANE_ParamName: string; override;
    function Value: string; override;
    function Units: string; override;
  end;

  TGridGwtUppBoundConc = class(T_ANE_GridParam)
    class function ANE_ParamName: string; override;
    function Value: string; override;
  end;

  TGridGwtLowBoundConc = class(T_ANE_GridParam)
    class function ANE_ParamName: string; override;
    function Value: string; override;
  end;

  TGridGwtLateralBoundConc = class(T_ANE_GridParam)
    class function ANE_ParamName: string; override;
    function Value: string; override;
  end;



  TGridUzfSaturatedKz = class(T_ANE_GridParam)
    class function ANE_ParamName: string; override;
    function Value: string; override;
  end;

  TGridUzfBrooksCoreyEpsilon = class(T_ANE_GridParam)
    class function ANE_ParamName: string; override;
    function Value: string; override;
  end;

  TGridUzfSaturatedWaterContent = class(T_ANE_GridParam)
    class function ANE_ParamName: string; override;
    function Value: string; override;
  end;

  TGridUzfInitialWaterContent = class(T_ANE_GridParam)
    class function ANE_ParamName: string; override;
    function Value: string; override;
  end;

  TGridUzfExtinctionDepth = class(T_ANE_GridParam)
    class function ANE_ParamName: string; override;
    function Value: string; override;
  end;

  TGridUzfExtinctionWaterContent = class(T_ANE_GridParam)
    class function ANE_ParamName: string; override;
    function Value: string; override;
  end;

  TGridUzfModflowLayerParam = class(T_ANE_GridParam)
    class function ANE_ParamName: string; override;
    function Value: string; override;
    constructor Create(AParameterList: T_ANE_ParameterList;
      Index: Integer); override;
  end;

  TGridUzfDownstreamStreamOrLake = class(T_ANE_GridParam)
    class function ANE_ParamName: string; override;
    function Value: string; override;
    constructor Create(AParameterList: T_ANE_ParameterList;
      Index: Integer); override;
  end;

  TGridUzfOutputChoice = class(T_ANE_GridParam)
    class function ANE_ParamName: string; override;
    function Value: string; override;
    constructor Create(AParameterList: T_ANE_ParameterList;
      Index: Integer); override;
  end;

  TGridGwmZone = class(T_ANE_GridParam)
    class function ANE_ParamName: string; override;
    function Value: string; override;
    constructor Create(AParameterList: T_ANE_ParameterList;
      Index: Integer); override;
  end;

  TGeologicUnitParameters = class(T_ANE_IndexedParameterList)
    constructor Create(AnOwner: T_ANE_ListOfIndexedParameterLists;
      Position: Integer); override;
  end;

  TMultiplierParameters = class(T_ANE_IndexedParameterList)
    constructor Create(AnOwner: T_ANE_ListOfIndexedParameterLists;
      Position: Integer); override;
  end;

  TZoneParameters = class(T_ANE_IndexedParameterList)
    constructor Create(AnOwner: T_ANE_ListOfIndexedParameterLists;
      Position: Integer); override;
  end;

  TMFGridLayer = class(T_ANE_GridLayer)
    constructor Create(ALayerList: T_ANE_LayerList; Index: Integer); override;
    class function ANE_LayerName: string; override;
  end;

implementation

uses Variables, SysUtils, MODFLOWPieDescriptors, ModflowUnit,
  ModflowLayerFunctions;

const
  kMFGrid = 'MODFLOW FD Grid';
  kMFGridETSurface = 'ET Surface Elevation';
  kMFGridETExtinctionDepth = 'ET Extinction Depth';
  kMFGridETLayer = 'ET Layer';
  kMFGridRechElev = 'Recharge Elevation';
  kMFGridResElev = 'Reservoir Elevation';
  kMFGridResKz = 'Reservoir Kz';
  kMFGridResThickness = 'Reservoir Bed Thickness';
  kMFGridIBound = 'IBOUND Unit';
  kMFGridTop = 'Elev Top Unit';
  kMFGridBottom = 'Elev Bot Unit';
  kMFGridThickness = 'Thickness Unit';
  kMFGridInitialHead = 'Initial Head Unit';
  kMFGridKx = 'Kx Unit';
  kMFGridKz = 'Kz Unit';
  kMFGridAniso = 'Aniso Unit';
  kMFGridSpecYield = 'Sp_Yield Unit';
  kMFGridSpecStor = 'Sp_Storage Unit';
  kMFGridWetting = 'Wetting Unit';
  kMFGridWelLocation = 'Well Location Unit';
  kMFGridRivLocation = 'River Location Unit';
  kMFGridDrainLocation = 'Drain Location Unit';
  kMFGridDrainReturnLocation = 'Drain Return Location Unit';
  kMFGridGHBLocation = 'Gen Head B Location Unit';
  kMFGridMOCInitConc = 'Init Concentration Unit';
  kMFGridMOCSubBound = 'Subgrid Boundary';
  kMFGridMOCParticleRegen = 'Particle Regeneration Unit';
  kMFGridMOCPorosity = 'Porosity Unit';
  kMFGridHFBLocation = 'Horizontal Flow Barrier Location Unit';
  kMFGridFHBLocation = 'Flow and Head Boundary Location Unit';
  //  kMFGridZoneBudget = 'ZoneBudget Zone Unit';
  kMFGridZoneBudget = 'ZONEBDGT Zone Unit';
  kMFGridMODPATHZone = 'MPATH Zone Unit';
  kMFGridStreamLocation = 'Stream Location Unit';
  kMFGridSFRLocation = 'SFR Location Unit';
  kMFGridTrans = 'Trans Unit';
  kMFGridVcont = 'Vert Cond Unit';
  kMFGridConfStorage = 'Conf Storage Coef Unit';
  kMFGridRechargeLayer = 'Recharge Layer';
  kMFPrescribedConc = 'Prescribed Head Conc Unit';
  kMFMultiplier = 'Multiplier';
  kMFZone = 'Zone';
  kMFLakeLocation = 'Lake Location Unit';
  kIBSPreconsolidationHead = 'IBS Preconsolidation head Unit';
  kIBSElasticStorageFactor = 'IBS Elastic storage factor Unit';
  kIBSInelasticStorageFactor = 'IBS Inelastic storage factor Unit';
  kIBSStartingCompaction = 'IBS Starting compaction Unit';
  kMFGridETSSurface = 'ETS Surface Elevation';
  kMFGridETSExtinctionDepth = 'ETS Extinction Depth';
  kMFGridETSLayer = 'ETS Layer';
  kMFGridCHDLocation = 'CHD Location Unit';
  //  kMT3DPorosity = 'MT3D Porosity Unit';
  kMFGridMNWLocation = 'MNW Location';
  kMT3DICBUND = 'ICBUND Unit';
  kMT3DActiveCell = 'Active MT3D Cell Unit';
  kMT3DInitConcCell = 'MT3D Initial Concentration Unit';
  kMT3DTimeVaryConcCell = 'MT3D Time Variant Concentration Location Unit';
  kMT3DMassFluxCell = 'MT3D Mass Flux Location Unit';
  kMT3DObsLocCell = 'MT3D Observation Location Unit';
  kMT3DLongDispCell = 'MT3D Longitudinal Dispersivity Unit';
  kMT3DInitConcBCell = 'MT3D Initial ConcentrationB Unit';
  kMT3DInitConcCCell = 'MT3D Initial ConcentrationC Unit';
  kMT3DInitConcDCell = 'MT3D Initial ConcentrationD Unit';
  kMT3DInitConcECell = 'MT3D Initial ConcentrationE Unit';
  kMocParticleLayerCount ='Layer Particle Count Unit';
  kMocParticleRowCount ='Row Particle Count Unit';
  kMocParticleColumnCount ='Column Particle Count Unit';
  kMocParticleLocation ='Particle Location Unit';
  rsUpperBoundConc = 'Upper Bound Conc';
  rsLowerBoundConc = 'Lower Bound Conc';
  rsLateralBoundConc = 'Lateral Bound Conc';
  rsGWTParticleObservation = 'GWT Particle Observation';

  kUzfSaturatedKz = 'UZF Saturated Kz';
  kUzfBrooksCoreyEpsilon = 'UZF Brooks_Corey Epsilon';
  kUzfSaturatedWaterContent = 'UZF Saturated Water Content';
  kUzfInitialWaterContent = 'UZF Initial Water Content';
  kUzfExtinctionDepth = 'UZF Extinction Depth';
  kUzfExtinctionWaterContent = 'UZF Extinction Water Content';
  kUzfModflowLayer = 'UZF Modflow Layer';
  kUzfDownstreamStreamOrLake = 'UZF Downstream Stream or Lake';
  kUzfOutputChoice = 'UZF Output Choice';

class function TGridETSurf.ANE_ParamName: string;
begin
  result := kMFGridETSurface;
end;

function TGridETSurf.Value: string;
begin
  result := ModflowTypes.GetETLayerType.ANE_LayerName + '.'
    + ModflowTypes.GetMFETSurfaceParamType.ANE_ParamName;
end;

function TGridETSurf.Units: string;
begin
  result := LengthUnit;
end;

//--------------------------------------------------

class function TGridRechElev.ANE_ParamName: string;
begin
  result := kMFGridRechElev;
end;

function TGridRechElev.Value: string;
begin
  result := ModflowTypes.GetRechargeLayerType.ANE_LayerName + '.'
    + ModflowTypes.GetMFRechElevParamType.ANE_ParamName;
end;

function TGridRechElev.Units: string;
begin
  result := LengthUnit;
end;

//--------------------------------------------------

constructor TIBoundGridParam.Create(AParameterList: T_ANE_ParameterList;
  Index: Integer);
begin
  inherited Create(AParameterList, Index);
  ValueType := pvInteger;
end;

class function TIBoundGridParam.ANE_ParamName: string;
begin
  Result := kMFGridIBound
end;

function TIBoundGridParam.Value;
begin
  case frmMODFLOW.comboCustomize.ItemIndex of
    0:
      begin
        result := 'If((CountObjectsInBlock('
          + ModflowTypes.GetPrescribedHeadLayerType.ANE_LayerName
          + WriteIndex
          + ',0,1,2,3)>0),-1, 1)*BlockIsActive()*'
          + ModflowTypes.GetInactiveLayerType.ANE_LayerName
          + WriteIndex;
      end;
    1, 2:
      begin
        result := 'If((CountObjectsInBlock('
          + ModflowTypes.GetPrescribedHeadLayerType.ANE_LayerName
          + WriteIndex
          + ',0,1)>0)|(CountObjectsInBlock('
          + ModflowTypes.GetPrescribedHeadLayerType.ANE_LayerName
          + WriteIndex
          + ',3)>0&'
          + ModflowTypes.GetPrescribedHeadLayerType.ANE_LayerName
          + WriteIndex
          + '!=$N/A),-1, 1)*(BlockIsActive()'
          ;
        if frmModflow.cbActiveBoundary.Checked then
        begin
          result := result + '|(CountObjectsInBlock('
            + ModflowTypes.GetMFDomainOutType.ANE_LayerName
            + ')>0)';
        end;
        result := result + ')*If('
          + ModflowTypes.GetInactiveLayerType.ANE_LayerName
          + WriteIndex + ', 1, 0)';
      end;

  end;
end;

function TIBoundGridParam.Units: string;
begin
  Result := '-1 or 0  or 1';
end;

//--------------------------------------------------

class function TGridTopElev.ANE_ParamName: string;
begin
  result := kMFGridTop;
end;

function TGridTopElev.Value: string;
begin
  result := ModflowTypes.GetMFTopElevLayerType.ANE_LayerName + WriteIndex;
end;

function TGridTopElev.Units: string;
begin
  result := LengthUnit;
end;

//--------------------------------------------------

class function TGridBottomElev.ANE_ParamName: string;
begin
  result := kMFGridBottom;
end;

function TGridBottomElev.Value: string;
begin
  result := ModflowTypes.GetBottomElevLayerType.ANE_LayerName + WriteIndex;
end;

function TGridBottomElev.Units: string;
begin
  result := LengthUnit;
end;

//--------------------------------------------------

class function TGridThickness.ANE_ParamName: string;
begin
  result := kMFGridThickness;
end;

function TGridThickness.Value: string;
begin
  result := ModflowTypes.GetMFGridTopElevParamType.ANE_ParamName + WriteIndex
    + '-'
    + ModflowTypes.GetMFGridBottomElevParamType.ANE_ParamName + WriteIndex;
end;

function TGridThickness.Units: string;
begin
  result := LengthUnit;
end;

//--------------------------------------------------

class function TGridInitialHead.ANE_ParamName: string;
begin
  result := kMFGridInitialHead;
end;

function TGridInitialHead.Value: string;
begin
  case frmMODFLOW.comboCustomize.ItemIndex of
    0: // ver MFGUI2
      begin
        result := 'If(((CountObjectsInBlock('
          + ModflowTypes.GetPrescribedHeadLayerType.ANE_LayerName + WriteIndex
          + ',0,1,2,3))>0),Interpolate('
          + ModflowTypes.GetPrescribedHeadLayerType.ANE_LayerName + WriteIndex
          + '),'
          + ModflowTypes.GetInitialHeadLayerType.ANE_LayerName + WriteIndex
          + ')*Abs('
          + TMFGridLayer.ANE_LayerName
          + '.'
          + ModflowTypes.GetMFIBoundGridParamType.ANE_ParamName + WriteIndex
          + ')';
      end;
    1: // average points and line
      begin
        {
                result := 'If(CountObjectsInBlock('
                  + ModflowTypes.GetPrescribedHeadLayerType.ANE_LayerName + WriteIndex
                  + ',0,1)>0, ( (AverageObjectsInBlock('
                  + ModflowTypes.GetPrescribedHeadLayerType.ANE_LayerName + WriteIndex
                  + ',0,1) )), If(CountObjectsInBlock('
                  + ModflowTypes.GetPrescribedHeadLayerType.ANE_LayerName + WriteIndex
                  + ',2)>0, AverageObjectsInBlock('
                  + ModflowTypes.GetPrescribedHeadLayerType.ANE_LayerName + WriteIndex
                  + '), If('
                  + ModflowTypes.GetPrescribedHeadLayerType.ANE_LayerName + WriteIndex
                  + '!=$N/A, '
                  + ModflowTypes.GetPrescribedHeadLayerType.ANE_LayerName + WriteIndex
                  + ', '
                  + ModflowTypes.GetInitialHeadLayerType.ANE_LayerName + WriteIndex
                  + '))) * Abs('
                  + ModflowTypes.GetMFIBoundGridParamType.ANE_ParamName + WriteIndex
                  +')';
        }
        result := 'If(CountObjectsInBlock('
          + ModflowTypes.GetPrescribedHeadLayerType.ANE_LayerName + WriteIndex
          + ',0,1)>0, AverageObjectsInBlock('
          + ModflowTypes.GetPrescribedHeadLayerType.ANE_LayerName + WriteIndex
          + ',0,1), '
          {          + 'If(CountObjectsInBlock('
            + ModflowTypes.GetPrescribedHeadLayerType.ANE_LayerName + WriteIndex
            + ',2)>0, AverageObjectsInBlock('
            + ModflowTypes.GetPrescribedHeadLayerType.ANE_LayerName + WriteIndex
            + '), '  }
        + 'If((CountObjectsInBlock('
          + ModflowTypes.GetPrescribedHeadLayerType.ANE_LayerName + WriteIndex
          + ',3)>0&'

        + ModflowTypes.GetPrescribedHeadLayerType.ANE_LayerName + WriteIndex
          + '!=$N/A),'
          + ModflowTypes.GetPrescribedHeadLayerType.ANE_LayerName + WriteIndex
          + ', '
          + ModflowTypes.GetInitialHeadLayerType.ANE_LayerName + WriteIndex
          + ')) * Abs('
          + ModflowTypes.GetMFIBoundGridParamType.ANE_ParamName + WriteIndex
          + ')';
      end;
    2: // Points first
      begin
        {
                result := 'If(CountObjectsInBlock('
                  + ModflowTypes.GetPrescribedHeadLayerType.ANE_LayerName + WriteIndex
                  + ',0)>0, AverageObjectsInBlock('
                  + ModflowTypes.GetPrescribedHeadLayerType.ANE_LayerName + WriteIndex
                  + ',0), If(CountObjectsInBlock('
                  + ModflowTypes.GetPrescribedHeadLayerType.ANE_LayerName + WriteIndex
                  + ',1)>0, AverageObjectsInBlock('
                  + ModflowTypes.GetPrescribedHeadLayerType.ANE_LayerName + WriteIndex
                  + ',1), If(CountObjectsInBlock('
                  + ModflowTypes.GetPrescribedHeadLayerType.ANE_LayerName + WriteIndex
                  + ',2),AverageObjectsInBlock('
                  + ModflowTypes.GetPrescribedHeadLayerType.ANE_LayerName + WriteIndex
                  + '), If(CountObjectsInBlock('
                  + ModflowTypes.GetPrescribedHeadLayerType.ANE_LayerName + WriteIndex
                  + ',3)>0, '
                  + ModflowTypes.GetPrescribedHeadLayerType.ANE_LayerName + WriteIndex
                  + ', '
                  + ModflowTypes.GetInitialHeadLayerType.ANE_LayerName + WriteIndex
                  + ')))) * Abs('
                  + ModflowTypes.GetMFIBoundGridParamType.ANE_ParamName + WriteIndex
                  + ')';
        }
        result := 'If(CountObjectsInBlock('
          + ModflowTypes.GetPrescribedHeadLayerType.ANE_LayerName + WriteIndex
          + ',0)>0, AverageObjectsInBlock('
          + ModflowTypes.GetPrescribedHeadLayerType.ANE_LayerName + WriteIndex
          + ',0), If(CountObjectsInBlock('
          + ModflowTypes.GetPrescribedHeadLayerType.ANE_LayerName + WriteIndex
          + ',1)>0, AverageObjectsInBlock('
          + ModflowTypes.GetPrescribedHeadLayerType.ANE_LayerName + WriteIndex
          + ',1), '
          //          + ' If(CountObjectsInBlock('
  //          + ModflowTypes.GetPrescribedHeadLayerType.ANE_LayerName + WriteIndex
  //          + ',2),AverageObjectsInBlock('
  //          + ModflowTypes.GetPrescribedHeadLayerType.ANE_LayerName + WriteIndex
  //          + '), '
        + 'If(CountObjectsInBlock('
          + ModflowTypes.GetPrescribedHeadLayerType.ANE_LayerName + WriteIndex
          + ',3)>0&'
          + ModflowTypes.GetPrescribedHeadLayerType.ANE_LayerName + WriteIndex
          + '!=$N/A, '
          + ModflowTypes.GetPrescribedHeadLayerType.ANE_LayerName + WriteIndex
          + ', '