unit ModflowPIEFunctions;

interface

{ModflowPIEFunctions contains a function that adds PIE descriptors to the
 array of descriptors passed to Argus ONE.}

uses
  Windows, ProjectPIE, AnePIE, Forms, sysutils, Controls, classes, Dialogs;

procedure GetMODFLOWFunctions(const Project, Vendor, Product: ANE_STR; var
  numNames: ANE_INT32);

implementation

uses GetANEFunctionsUnit, MODFLOWPieDescriptors, ProjectFunctions,
  FunctionPIE, ImportPIE, MOC3DGridFunctions, ModflowTimeFunctions,
  ParamNamesAndTypes, ModflowLayerFunctions, MOC3DUnitFunctions,
  MOC3DParticleFunctions, ExportTemplatePIE, RunUnit, PostMODFLOWPieUnit,
  MODFLOW_FHBFunctions, MODPATHFunctionsUnit, HFBDisplay,
  ZoneBudgetFunctions, ModflowHelp, mpathplotUnit, WellDataUnit,
  CheckPIEVersionFunction, GetLayerUnit, PackageFunctions,
  WriteModflowFilesUnit, UnitNumbers, WriteGageUnit, LinkUnits,
  WriteMT3DUnit, frmContourImporterUnit, ModflowUnit, InternetConnection,
  VersInfo, UtilityFunctions, frmLinkStreamUnit;

procedure CheckInternetForNewerVersion(Handle: HWnd);
const
  VersionURL = 'http://water.usgs.gov/nrp/gwsoftware/mfgui4/Version.txt';
var
  Lines: TStringList;
  InternetVersion: string;
  VersionInPie: string;
  VersionInfo: TVersionInfo;
  IniFileName: string;
  TheIniFile: TStringList;
  Index: integer;
  DateString: string;
  FoundDate: boolean;
  DateIndex: integer;
  ShouldCheckInternet: boolean;
  FoundFrequency: boolean;
  FrequencyString: string;
  Frequency: integer;
begin
  // First read from the ini file when it was that you last
  // checked the version on the web.

  // Open the file.
  IniFileName := IniFile(Handle);
  if FileExists(IniFileName) then
  begin
    try
      TheIniFile := TStringList.Create;
      try
        FoundDate := False;
        FoundFrequency := False;
        DateString := '';
        DateIndex := -1;
        Frequency := -1;
        // Open the ini file.
        TheIniFile.LoadFromFile(IniFileName);
        for Index := 0 to TheIniFile.Count - 1 do
        begin
          if TheIniFile[Index] = 'edCheckDate' then
          begin
            // get the time when you last checked the internet.
            if Index + 1 < TheIniFile.Count then
            begin
              DateString := TheIniFile[Index + 1];
              DateIndex := Index + 1;
              FoundDate := True;
            end
            else
            begin
              // The program would only get here if a person
              // manually changed the .ini file.
              TheIniFile.Delete(Index);
            end;
            break;
          end;
          // Find out how frequently you should check the internet version.
          if TheIniFile[Index] = 'rgUpdateFrequency' then
          begin
            if Index + 1 < TheIniFile.Count then
            begin
              FrequencyString := TheIniFile[Index + 1];
              FoundFrequency := True;
              try
                Frequency := StrToInt(FrequencyString);
              except on EConvertError do
                begin
                  Frequency := -1;
                end;
              end;

              // Get the frequency (in days).
              case Frequency of
                0:
                  begin
                    Frequency := 1;
                  end;
                1:
                  begin
                    Frequency := 7;
                  end;
                2:
                  begin
                    Frequency := 30;
                  end;
                3:
                  begin
                    Frequency := -1;
                  end;
              else
                Frequency := -1;
              end;
            end
            else
            begin
              // The program would only get here if the .ini
              // file is changed manually.
              TheIniFile.Delete(Index);
            end;
          end;

        end;

        // If the data was not found, this is the first time that
        // the PIE has checked the internet date.  This must be a
        // new version on this computer so it is almost certainly
        // up-to-date.
        if not FoundDate then
        begin
          TheIniFile.Add('edCheckDate');
          TheIniFile.Add(FloatToStr(Now));
          try
            TheIniFile.SaveToFile(IniFileName);
          except
            // ignore
          end;
        end;

        // For some reason the date isn't stored so store it now.
        if FoundDate and (DateString = '') then
        begin
          TheIniFile[DateIndex] := FloatToStr(Now);
          try
            TheIniFile.SaveToFile(IniFileName);
          except
            // ignore
          end;
        end;

        // Figure out whether you should check the internet for a new version.
        try
          ShouldCheckInternet := FoundDate and (DateString <> '')
            and FoundFrequency and (Frequency > 0) and
            (Now - InternationalStrToFloat(DateString) > Frequency);
        except on EConvertError do
          begin
            ShouldCheckInternet := True;
            // ignore
          end;
        end;

        // Ask the user if the PIE should check the internet.
        if ShouldCheckInternet then
        begin
          Beep;
          if (MessageDlg('Would you like to check the Internet to see if '
            + 'an updated version of the MODFLOW GUI is available?',
            mtInformation, [mbYes, mbNo], 0) = mrYes) then
          begin
            // Get the version of the PIE.
            VersionInfo := TVersionInfo.Create(nil);
            try
              VersionInfo.FileName := GetDLLName;
              VersionInPie := VersionInfo.FileVersion;

              // Get the version on the internet.
              Lines := TStringList.Create;
              try
                if ReadInternetFile(VersionURL, Lines) then
                begin
                  if Lines.Count > 0 then
                  begin
                    InternetVersion := Lines[0];
                    // compare the PIE version number and internet version
                    // number.  Inform the user of the result.
                    if TfrmMODFLOW.PieIsEarlier(InternetVersion, VersionInPie,
                      False) then
                    begin
                      Beep;
                      MessageDlg('There is now a newer version of the '
                        + 'MODFLOW GUI available on the MODFLOW GUI web page.',
                        mtInformation, [mbOK], 0);
                    end
                    else
                    begin
                      Beep;
                      ShowMessage(
                        'Your version of the MODFLOW GUI is up-to-date');
                    end;
                  end;

                  // save the date that you checked the internet.
                  if FoundDate then
                  begin
                    TheIniFile[DateIndex] := FloatToStr(Now);
                    try
                      TheIniFile.SaveToFile(IniFileName);
                    except
                      // ignore
                    end;
                  end;
                end;
              finally
                Lines.Free;
              end;
            finally
              VersionInfo.Free;
            end;

          end;
        end;
      finally
        TheIniFile.Free;
      end;
    except on E: Exception do
      begin
        // generic error handling.
        MessageDlg(E.Message, mtWarning, [mbOK], 0);
      end;
    end;
  end;
end;

procedure GetMODFLOWFunctions(const Project, Vendor, Product: ANE_STR;
  var numNames: ANE_INT32);
var
  UsualOptions: EFunctionPIEFlags;
  Form: TForm;
begin
  Form := TForm.CreateNew(nil, 0);
  try
    CheckInternetForNewerVersion(Form.Handle);
  finally
    Form.Free;
  end;

//  CheckInternetForNewerVersion;

  UsualOptions := kFunctionNeedsProject or kFunctionIsHidden;
  //  UsualOptions := kFunctionNeedsProject;

  numNames := 0;

{$ASSERTIONS ON}
  {Assertions are a debugging tool. They can be turned off
  in the final version. See Delphi help for more information.}

  //MODFLOW Project
  gMODFLOWProjectPDesc.version := PROJECT_PIE_VERSION;
  gMODFLOWProjectPDesc.name := Project;
  gMODFLOWProjectPDesc.projectFlags := kProjectCanEdit or
    kProjectShouldClean or
    kProjectShouldSave;
  gMODFLOWProjectPDesc.createNewProc := GProjectNew;
  gMODFLOWProjectPDesc.editProjectProc := GEditForm;
  gMODFLOWProjectPDesc.cleanProjectProc := GClearForm;
  gMODFLOWProjectPDesc.saveProc := GSaveForm;
  gMODFLOWProjectPDesc.loadProc := GLoadForm;

  gMODFLOWPieDesc.name := '&New MODFLOW Project';
  gMODFLOWPieDesc.PieType := kProjectPIE;
  gMODFLOWPieDesc.descriptor := @gMODFLOWProjectPDesc;

  Assert(numNames < kMaxPIEDesc);
  gPIEDesc[numNames] := @gMODFLOWPieDesc; // add descriptor to list
  Inc(numNames); // increment number of names

  // MOCROW1 Pie descriptor
  gMocRow1FunctionDesc.version := FUNCTION_PIE_VERSION; // Function PIE verions
  gMocRow1FunctionDesc.functionFlags := UsualOptions; // Function options
  gMocRow1FunctionDesc.name := MOCROW1; // Function name
  gMocRow1FunctionDesc.address := GetMocRow1; // Function address
  gMocRow1FunctionDesc.returnType := kPIEInteger; // return type
  gMocRow1FunctionDesc.numParams := 0; // number of parameters;
  gMocRow1FunctionDesc.numOptParams := 2; // number of optional parameters;
  gMocRow1FunctionDesc.paramNames := @gpnColumnRow; // paramter names
  gMocRow1FunctionDesc.paramTypes := @gTwoIntegerTypes; // parameter types
  gMocRow1FunctionDesc.neededProject := Project; // needed project

  gMocRow1PieDesc.version := ANE_PIE_VERSION; // Function Pie version
  gMocRow1PieDesc.vendor := Vendor; // vendor
  gMocRow1PieDesc.product := Product; // product
  gMocRow1PieDesc.name := MOCROW1; // function name
  gMocRow1PieDesc.PieType := kFunctionPIE; // Pie type
  gMocRow1PieDesc.descriptor := @gMocRow1FunctionDesc;
  // function PIE descriptor address

  Assert(numNames < kMaxPIEDesc);
  gPIEDesc[numNames] := @gMocRow1PieDesc; // add descriptor to list
  Inc(numNames); // increment number of names

  // MOCROW2 Pie descriptor
  gMocRow2FunctionDesc.version := FUNCTION_PIE_VERSION; // Function PIE verions
  gMocRow2FunctionDesc.functionFlags := UsualOptions; // Function options
  gMocRow2FunctionDesc.name := MOCROW2; // Function name
  gMocRow2FunctionDesc.address := GetMocRow2; // Function address
  gMocRow2FunctionDesc.returnType := kPIEInteger; // return type
  gMocRow2FunctionDesc.numParams := 0; // number of parameters;
  gMocRow2FunctionDesc.numOptParams := 2; // number of optional parameters;
  gMocRow2FunctionDesc.paramNames := @gpnColumnRow; // paramter names
  gMocRow2FunctionDesc.paramTypes := @gTwoIntegerTypes; // parameter types
  gMocRow2FunctionDesc.neededProject := Project; // needed project

  gMocRow2PieDesc.version := ANE_PIE_VERSION; // Function Pie version
  gMocRow2PieDesc.vendor := Vendor; // vendor
  gMocRow2PieDesc.product := Product; // product
  gMocRow2PieDesc.name := MOCROW2; // function name
  gMocRow2PieDesc.PieType := kFunctionPIE; // Pie type
  gMocRow2PieDesc.descriptor := @gMocRow2FunctionDesc;
  // function PIE descriptor address

  Assert(numNames < kMaxPIEDesc);
  gPIEDesc[numNames] := @gMocRow2PieDesc; // add descriptor to list
  Inc(numNames); // increment number of names

  // MOCROW1 Pie descriptor
  gMocCol1FunctionDesc.version := FUNCTION_PIE_VERSION; // Function PIE verions
  gMocCol1FunctionDesc.functionFlags := UsualOptions; // Function options
  gMocCol1FunctionDesc.name := MOCCOL1; // Function name
  gMocCol1FunctionDesc.address := GetMocCol1; // Function address
  gMocCol1FunctionDesc.returnType := kPIEInteger; // return type
  gMocCol1FunctionDesc.numParams := 0; // number of parameters;
  gMocCol1FunctionDesc.numOptParams := 2; // number of optional parameters;
  gMocCol1FunctionDesc.paramNames := @gpnColumnRow; // paramter names
  gMocCol1FunctionDesc.paramTypes := @gTwoIntegerTypes; // parameter types
  gMocCol1FunctionDesc.neededProject := Project; // needed project

  gMocCol1PieDesc.version := ANE_PIE_VERSION; // Function Pie version
  gMocCol1PieDesc.vendor := Vendor; // vendor
  gMocCol1PieDesc.product := Product; // product
  gMocCol1PieDesc.name := MOCCOL1; // function name
  gMocCol1PieDesc.PieType := kFunctionPIE; // Pie type
  gMocCol1PieDesc.descriptor := @gMocCol1FunctionDesc;
  // function PIE descriptor address

  Assert(numNames < kMaxPIEDesc);
  gPIEDesc[numNames] := @gMocCol1PieDesc; // add descriptor to list
  Inc(numNames); // increment number of names

  // MOCROW2 Pie descriptor
  gMocCol2FunctionDesc.version := FUNCTION_PIE_VERSION; // Function PIE verions
  gMocCol2FunctionDesc.functionFlags := UsualOptions; // Function options
  gMocCol2FunctionDesc.name := MOCCOL2; // Function name
  gMocCol2FunctionDesc.address := GetMocCol2; // Function address
  gMocCol2FunctionDesc.returnType := kPIEInteger; // return type
  gMocCol2FunctionDesc.numParams := 0; // number of parameters;
  gMocCol2FunctionDesc.numOptParams := 2; // number of optional parameters;
  gMocCol2FunctionDesc.paramNames := @gpnColumnRow; // paramter names
  gMocCol2FunctionDesc.paramTypes := @gTwoIntegerTypes; // parameter types
  gMocCol2FunctionDesc.neededProject := Project; // needed project

  gMocCol2PieDesc.version := ANE_PIE_VERSION; // Function Pie version
  gMocCol2PieDesc.vendor := Vendor; // vendor
  gMocCol2PieDesc.product := Product; // product
  gMocCol2PieDesc.name := MOCCOL2; // function name
  gMocCol2PieDesc.PieType := kFunctionPIE; // Pie type
  gMocCol2PieDesc.descriptor := @gMocCol2FunctionDesc;
  // function PIE descriptor address

  Assert(numNames < kMaxPIEDesc);
  gPIEDesc[numNames] := @gMocCol2PieDesc; // add descriptor to list
  Inc(numNames); // increment number of names

  // Number of periods Pie descriptor
  gMFGetNumPerFunctionDesc.version := FUNCTION_PIE_VERSION;
  // Function PIE verions
  gMFGetNumPerFunctionDesc.functionFlags := kFunctionNeedsProject;
  // Function options
  gMFGetNumPerFunctionDesc.name := 'MODFLOW_NPER'; // Function name
  gMFGetNumPerFunctionDesc.address := GetNumPer; // Function address
  gMFGetNumPerFunctionDesc.returnType := kPIEInteger; // return type
  gMFGetNumPerFunctionDesc.numParams := 0; // number of parameters;
  gMFGetNumPerFunctionDesc.numOptParams := 0; // number of optional parameters;
  gMFGetNumPerFunctionDesc.paramNames := nil; // paramter names
  gMFGetNumPerFunctionDesc.paramTypes := nil; // parameter types
  gMFGetNumPerFunctionDesc.neededProject := Project; // needed project

  gMFGetNumPerPieDesc.version := ANE_PIE_VERSION; // Function Pie version
  gMFGetNumPerPieDesc.vendor := Vendor; // vendor
  gMFGetNumPerPieDesc.product := Product; // product
  gMFGetNumPerPieDesc.name := 'MODFLOW_NPER'; // function name
  gMFGetNumPerPieDesc.PieType := kFunctionPIE; // Pie type
  gMFGetNumPerPieDesc.descriptor := @gMFGetNumPerFunctionDesc;
  // function PIE descriptor address

  Assert(numNames < kMaxPIEDesc);
  gPIEDesc[numNames] := @gMFGetNumPerPieDesc; // add descriptor to list
  Inc(numNames); // increment number of names

  // Period length Pie descriptor
  gMFGetPerLengthFunctionDesc.version := FUNCTION_PIE_VERSION;
  // Function PIE verions
  gMFGetPerLengthFunctionDesc.functionFlags := UsualOptions; // Function options
  gMFGetPerLengthFunctionDesc.name := 'MODFLOW_PERLEN'; // Function name
  gMFGetPerLengthFunctionDesc.address := GetPerLength; // Function address
  gMFGetPerLengthFunctionDesc.returnType := kPIEFloat; // return type
  gMFGetPerLengthFunctionDesc.numParams := 1; // number of parameters;
  gMFGetPerLengthFunctionDesc.numOptParams := 0;
  // number of optional parameters;
  gMFGetPerLengthFunctionDesc.paramNames := @gpnPeriod; // paramter names
  gMFGetPerLengthFunctionDesc.paramTypes := @gOneIntegerTypes; // parameter types
  gMFGetPerLengthFunctionDesc.neededProject := Project; // needed project

  gMFGetPerLengthPieDesc.version := ANE_PIE_VERSION; // Function Pie version
  gMFGetPerLengthPieDesc.vendor := Vendor; // vendor
  gMFGetPerLengthPieDesc.product := Product; // product
  gMFGetPerLengthPieDesc.name := 'MODFLOW_PERLEN'; // function name
  gMFGetPerLengthPieDesc.PieType := kFunctionPIE; // Pie type
  gMFGetPerLengthPieDesc.descriptor := @gMFGetPerLengthFunctionDesc;
  // function PIE descriptor address

  Assert(numNames < kMaxPIEDesc);
  gPIEDesc[numNames] := @gMFGetPerLengthPieDesc; // add descriptor to list
  Inc(numNames); // increment number of names

  // number of steps in Period Pie descriptor
  gMFGetPerStepsFunctionDesc.version := FUNCTION_PIE_VERSION;
  // Function PIE verions
  gMFGetPerStepsFunctionDesc.functionFlags := UsualOptions; // Function options
  gMFGetPerStepsFunctionDesc.name := 'MODFLOW_NSTP'; // Function name
  gMFGetPerStepsFunctionDesc.address := GetPerSteps; // Function address
  gMFGetPerStepsFunctionDesc.returnType := kPIEInteger; // return type
  gMFGetPerStepsFunctionDesc.numParams := 1; // number of parameters;
  gMFGetPerStepsFunctionDesc.numOptParams := 0; // number of optional parameters;
  gMFGetPerStepsFunctionDesc.paramNames := @gpnPeriod; // paramter names
  gMFGetPerStepsFunctionDesc.paramTypes := @gOneIntegerTypes; // parameter types
  gMFGetPerStepsFunctionDesc.neededProject := Project; // needed project

  gMFGetPerStepsPieDesc.version := ANE_PIE_VERSION; // Function Pie version
  gMFGetPerStepsPieDesc.vendor := Vendor; // vendor
  gMFGetPerStepsPieDesc.product := Product; // product
  gMFGetPerStepsPieDesc.name := 'MODFLOW_NSTP'; // function name
  gMFGetPerStepsPieDesc.PieType := kFunctionPIE; // Pie type
  gMFGetPerStepsPieDesc.descriptor := @gMFGetPerStepsFunctionDesc;
  // function PIE descriptor address

  Assert(numNames < kMaxPIEDesc);
  gPIEDesc[numNames] := @gMFGetPerStepsPieDesc; // add descriptor to list
  Inc(numNames); // increment number of names

  // time step multiplier Pie descriptor
  gMFGetTimeStepMultFunctionDesc.version := FUNCTION_PIE_VERSION;
  // Function PIE verions
  gMFGetTimeStepMultFunctionDesc.functionFlags := UsualOptions;
  // Function options
  gMFGetTimeStepMultFunctionDesc.name := 'MODFLOW_TSMULT'; // Function name
  gMFGetTimeStepMultFunctionDesc.address := GetTimeStepMult; // Function address
  gMFGetTimeStepMultFunctionDesc.returnType := kPIEFloat; // return type
  gMFGetTimeStepMultFunctionDesc.numParams := 1; // number of parameters;
  gMFGetTimeStepMultFunctionDesc.numOptParams := 0;
  // number of optional parameters;
  gMFGetTimeStepMultFunctionDesc.paramNames := @gpnPeriod; // paramter names
  gMFGetTimeStepMultFunctionDesc.paramTypes := @gOneIntegerTypes;
  // parameter types
  gMFGetTimeStepMultFunctionDesc.neededProject := Project; // needed project

  gMFGetTimeStepMultPieDesc.version := ANE_PIE_VERSION; // Function Pie version
  gMFGetTimeStepMultPieDesc.vendor := Vendor; // vendor
  gMFGetTimeStepMultPieDesc.product := Product; // product
  gMFGetTimeStepMultPieDesc.name := 'MODFLOW_TSMULT'; // function name
  gMFGetTimeStepMultPieDesc.PieType := kFunctionPIE; // Pie type
  gMFGetTimeStepMultPieDesc.descriptor := @gMFGetTimeStepMultFunctionDesc;
  // function PIE descriptor address

  Assert(numNames < kMaxPIEDesc);
  gPIEDesc[numNames] := @gMFGetTimeStepMultPieDesc; // add descriptor to list
  Inc(numNames); // increment number of names

  // number of geologic units PIE descriptor
  gMFGetNumUnitsFunctionDesc.version := FUNCTION_PIE_VERSION;
  // Function PIE verions
  gMFGetNumUnitsFunctionDesc.functionFlags := kFunctionNeedsProject;
  // Function options
  gMFGetNumUnitsFunctionDesc.name := 'MODFLOW_NLAY'; // Function name
  gMFGetNumUnitsFunctionDesc.address := GetNumUnits; // Function address
  gMFGetNumUnitsFunctionDesc.returnType := kPIEInteger; // return type
  gMFGetNumUnitsFunctionDesc.numParams := 0; // number of parameters;
  gMFGetNumUnitsFunctionDesc.numOptParams := 0; // number of optional parameters;
  gMFGetNumUnitsFunctionDesc.paramNames := nil; // paramter names
  gMFGetNumUnitsFunctionDesc.paramTypes := nil; // parameter types
  gMFGetNumUnitsFunctionDesc.neededProject := Project; // needed project

  gMFGetNumUnitsPieDesc.version := ANE_PIE_VERSION; // Function Pie version
  gMFGetNumUnitsPieDesc.vendor := Vendor; // vendor
  gMFGetNumUnitsPieDesc.product := Product; // product
  gMFGetNumUnitsPieDesc.name := 'MODFLOW_NLAY'; // function name
  gMFGetNumUnitsPieDesc.PieType := kFunctionPIE; // Pie type
  gMFGetNumUnitsPieDesc.descriptor := @gMFGetNumUnitsFunctionDesc;
  // function PIE descriptor address

  Assert(numNames < kMaxPIEDesc);
  gPIEDesc[numNames] := @gMFGetNumUnitsPieDesc; // add descriptor to list
  Inc(numNames); // increment number of names

  // anisotropy Pie descriptor
  gMFGetAnisotropyFunctionDesc.version := FUNCTION_PIE_VERSION;
  // Function PIE verions
  gMFGetAnisotropyFunctionDesc.functionFlags := UsualOptions; // Function options
  gMFGetAnisotropyFunctionDesc.name := 'MODFLOW_TRPY'; // Function name
  gMFGetAnisotropyFunctionDesc.address := GetAnisotropy; // Function address
  gMFGetAnisotropyFunctionDesc.returnType := kPIEFloat; // return type
  gMFGetAnisotropyFunctionDesc.numParams := 1; // number of parameters;
  gMFGetAnisotropyFunctionDesc.numOptParams := 0;
  // number of optional parameters;
  gMFGetAnisotropyFunctionDesc.paramNames := @gpnUnit; // paramter names
  gMFGetAnisotropyFunctionDesc.paramTypes := @gOneIntegerTypes;
  // parameter types
  gMFGetAnisotropyFunctionDesc.neededProject := Project; // needed project

  gMFGetAnisotropyPieDesc.version := ANE_PIE_VERSION; // Function Pie version
  gMFGetAnisotropyPieDesc.vendor := Vendor; // vendor
  gMFGetAnisotropyPieDesc.product := Product; // product
  gMFGetAnisotropyPieDesc.name := 'MODFLOW_TRPY'; // function name
  gMFGetAnisotropyPieDesc.PieType := kFunctionPIE; // Pie type
  gMFGetAnisotropyPieDesc.descriptor := @gMFGetAnisotropyFunctionDesc;
  // function PIE descriptor address

  Assert(numNames < kMaxPIEDesc);
  gPIEDesc[numNames] := @gMFGetAnisotropyPieDesc; // add descriptor to list
  Inc(numNames); // increment number of names

  // Unit Simulated Pie descriptor
  gMFGetUnitSimulatedFunctionDesc.version := FUNCTION_PIE_VERSION;
  // Function PIE verions
  gMFGetUnitSimulatedFunctionDesc.functionFlags := kFunctionNeedsProject;
  // Function options
  gMFGetUnitSimulatedFunctionDesc.name := 'MODFLOW_SIMUL'; // Function name
  gMFGetUnitSimulatedFunctionDesc.address := GetUnitSimulated;
  // Function address
  gMFGetUnitSimulatedFunctionDesc.returnType := kPIEBoolean; // return type
  gMFGetUnitSimulatedFunctionDesc.numParams := 1; // number of parameters;
  gMFGetUnitSimulatedFunctionDesc.numOptParams := 0;
  // number of optional parameters;
  gMFGetUnitSimulatedFunctionDesc.paramNames := @gpnUnit; // paramter names
  gMFGetUnitSimulatedFunctionDesc.paramTypes := @gOneIntegerTypes;
  // parameter types
  gMFGetUnitSimulatedFunctionDesc.neededProject := Project; // needed project

  gMFGetUnitSimulatedPieDesc.version := ANE_PIE_VERSION; // Function Pie version
  gMFGetUnitSimulatedPieDesc.vendor := Vendor; // vendor
  gMFGetUnitSimulatedPieDesc.product := Product; // product
  gMFGetUnitSimulatedPieDesc.name := 'MODFLOW_SIMUL'; // function name
  gMFGetUnitSimulatedPieDesc.PieType := kFunctionPIE; // Pie type
  gMFGetUnitSimulatedPieDesc.descriptor := @gMFGetUnitSimulatedFunctionDesc;
  // function PIE descriptor address

  Assert(numNames < kMaxPIEDesc);
  gPIEDesc[numNames] := @gMFGetUnitSimulatedPieDesc; // add descriptor to list
  Inc(numNames); // increment number of names

  // get method of averaging transmissivity
  gMFGetUnitAvgMethFunctionDesc.version := FUNCTION_PIE_VERSION;
  // Function PIE verions
  gMFGetUnitAvgMethFunctionDesc.functionFlags := UsualOptions;
  // Function options
  gMFGetUnitAvgMethFunctionDesc.name := 'MODFLOW_AVEMETHOD'; // Function name
  gMFGetUnitAvgMethFunctionDesc.address := GetLayerAveragingMethod;
  // Function address
  gMFGetUnitAvgMethFunctionDesc.returnType := kPIEInteger; // return type
  gMFGetUnitAvgMethFunctionDesc.numParams := 1; // number of parameters;
  gMFGetUnitAvgMethFunctionDesc.numOptParams := 0;
  // number of optional parameters;
  gMFGetUnitAvgMethFunctionDesc.paramNames := @gpnUnit; // paramter names
  gMFGetUnitAvgMethFunctionDesc.paramTypes := @gOneIntegerTypes;
  // parameter types
  gMFGetUnitAvgMethFunctionDesc.neededProject := Project; // needed project

  gMFGetUnitAvgMethPieDesc.version := ANE_PIE_VERSION; // Function Pie version
  gMFGetUnitAvgMethPieDesc.vendor := Vendor; // vendor
  gMFGetUnitAvgMethPieDesc.product := Product; // product
  gMFGetUnitAvgMethPieDesc.name := 'MODFLOW_AVEMETHOD'; // function name
  gMFGetUnitAvgMethPieDesc.PieType := kFunctionPIE; // Pie type
  gMFGetUnitAvgMethPieDesc.descriptor := @gMFGetUnitAvgMethFunctionDesc;
  // function PIE descriptor address

  Assert(numNames < kMaxPIEDesc);
  gPIEDesc[numNames] := @gMFGetUnitAvgMethPieDesc; // add descriptor to list
  Inc(numNames); // increment number of names

  // get layer type
  gMFGetLayerTypeFunctionDesc.version := FUNCTION_PIE_VERSION;
  // Function PIE verions
  gMFGetLayerTypeFunctionDesc.functionFlags := kFunctionNeedsProject;
  // Function options
  gMFGetLayerTypeFunctionDesc.name := 'MODFLOW_LAYCON'; // Function name
  gMFGetLayerTypeFunctionDesc.address := GetLayerType; // Function address
  gMFGetLayerTypeFunctionDesc.returnType := kPIEInteger; // return type
  gMFGetLayerTypeFunctionDesc.numParams := 1; // number of parameters;
  gMFGetLayerTypeFunctionDesc.numOptParams := 0;
  // number of optional parameters;
  gMFGetLayerTypeFunctionDesc.paramNames := @gpnUnit; // paramter names
  gMFGetLayerTypeFunctionDesc.paramTypes := @gOneIntegerTypes; // parameter types
  gMFGetLayerTypeFunctionDesc.neededProject := Project; // needed project

  gMFGetLayerTypePieDesc.version := ANE_PIE_VERSION; // Function Pie version
  gMFGetLayerTypePieDesc.vendor := Vendor; // vendor
  gMFGetLayerTypePieDesc.product := Product; // product
  gMFGetLayerTypePieDesc.name := 'MODFLOW_LAYCON'; // function name
  gMFGetLayerTypePieDesc.PieType := kFunctionPIE; // Pie type
  gMFGetLayerTypePieDesc.descriptor := @gMFGetLayerTypeFunctionDesc;
  // function PIE descriptor address

  Assert(numNames < kMaxPIEDesc);
  gPIEDesc[numNames] := @gMFGetLayerTypePieDesc; // add descriptor to list
  Inc(numNames); // increment number of names

  // get vertical discretization
  gMFGetVerticalDiscrFunctionDesc.version := FUNCTION_PIE_VERSION;
  // Function PIE verions
  gMFGetVerticalDiscrFunctionDesc.functionFlags := kFunctionNeedsProject;
  // Function options
  gMFGetVerticalDiscrFunctionDesc.name := 'MODFLOW_NDIV'; // Function name
  gMFGetVerticalDiscrFunctionDesc.address := GetLayerDiscretization;
  // Function address
  gMFGetVerticalDiscrFunctionDesc.returnType := kPIEInteger; // return type
  gMFGetVerticalDiscrFunctionDesc.numParams := 1; // number of parameters;
  gMFGetVerticalDiscrFunctionDesc.numOptParams := 0;
  // number of optional parameters;
  gMFGetVerticalDiscrFunctionDesc.paramNames := @gpnUnit; // paramter names
  gMFGetVerticalDiscrFunctionDesc.paramTypes := @gOneIntegerTypes;
  // parameter types
  gMFGetVerticalDiscrFunctionDesc.neededProject := Project; // needed project

  gMFGetVerticalDiscrPieDesc.version := ANE_PIE_VERSION; // Function Pie version
  gMFGetVerticalDiscrPieDesc.vendor := Vendor; // vendor
  gMFGetVerticalDiscrPieDesc.product := Product; // product
  gMFGetVerticalDiscrPieDesc.name := 'MODFLOW_NDIV'; // function name
  gMFGetVerticalDiscrPieDesc.PieType := kFunctionPIE; // Pie type
  gMFGetVerticalDiscrPieDesc.descriptor := @gMFGetVerticalDiscrFunctionDesc;
  // function PIE descriptor address

  Assert(numNames < kMaxPIEDesc);
  gPIEDesc[numNames] := @gMFGetVerticalDiscrPieDesc; // add descriptor to list
  Inc(numNames);

  // Unit uses transmissivity Pie descriptor
  gMFGetUnitUsesTransFunctionDesc.version := FUNCTION_PIE_VERSION;
  // Function PIE verions
  gMFGetUnitUsesTransFunctionDesc.functionFlags := UsualOptions;
  // Function options
  gMFGetUnitUsesTransFunctionDesc.name := 'MODFLOW_SpecTrans'; // Function name
  gMFGetUnitUsesTransFunctionDesc.address := GetUseTrans; // Function address
  gMFGetUnitUsesTransFunctionDesc.returnType := kPIEBoolean; // return type
  gMFGetUnitUsesTransFunctionDesc.numParams := 1; // number of parameters;
  gMFGetUnitUsesTransFunctionDesc.numOptParams := 0;
  // number of optional parameters;
  gMFGetUnitUsesTransFunctionDesc.paramNames := @gpnUnit; // paramter names
  gMFGetUnitUsesTransFunctionDesc.paramTypes := @gOneIntegerTypes;
  // parameter types
  gMFGetUnitUsesTransFunctionDesc.neededProject := Project; // needed project

  gMFGetUnitUsesTransPieDesc.version := ANE_PIE_VERSION; // Function Pie version
  gMFGetUnitUsesTransPieDesc.vendor := Vendor; // vendor
  gMFGetUnitUsesTransPieDesc.product := Product; // product
  gMFGetUnitUsesTransPieDesc.name := 'MODFLOW_SpecTrans'; // function name
  gMFGetUnitUsesTransPieDesc.PieType := kFunctionPIE; // Pie type
  gMFGetUnitUsesTransPieDesc.descriptor := @gMFGetUnitUsesTransFunctionDesc;
  // function PIE descriptor address

  Assert(numNames < kMaxPIEDesc);
  gPIEDesc[numNames] := @gMFGetUnitUsesTransPieDesc; // add descriptor to list
  Inc(numNames); // increment number of names

  // Unit uses VCONT Pie descriptor
  gMFGetUnitUsesVcontFunctionDesc.version := FUNCTION_PIE_VERSION;
  // Function PIE verions
  gMFGetUnitUsesVcontFunctionDesc.functionFlags := UsualOptions;
  // Function options
  gMFGetUnitUsesVcontFunctionDesc.name := 'MODFLOW_SpecVcont'; // Function name
  gMFGetUnitUsesVcontFunctionDesc.address := GetUseVcont; // Function address
  gMFGetUnitUsesVcontFunctionDesc.returnType := kPIEBoolean; // return type
  gMFGetUnitUsesVcontFunctionDesc.numParams := 1; // number of parameters;
  gMFGetUnitUsesVcontFunctionDesc.numOptParams := 0;