unit ModflowUnit;

interface

{ModflowUnit defines the form displayed when "PIEs|Edit Project Info" is
 selected.}
uses
  Windows, Messages, SysUtils, Classes, Graphics, Controls, Forms, Dialogs,
  ARGUSFORMUNIT, Grids, StdCtrls, ArgusDataEntry, ComCtrls, Buttons,
  MFLayerStructureUnit, OleCtrls, ASLink, DataGrid, ExtCtrls, ANE_LayerUnit,
  StringGrid3d, ModflowLayerClassTypes, frmPriorEquationEditorUnit,
  CheckLst, ALSTDlg, addbtn95, framHUF_Unit, RbwDataGrid, Strset,
  framFilePathUnit, frameFormatDescriptor, frameOutputControlUnit,
  frameGWM_Unit, RbwDataGrid2, HH, HH_FUNCS, RbwDataGrid4, JvExCheckLst,
  JvCheckListBox, JvExStdCtrls, JvCombobox, JvListComb, Rbw95Button,
  JvExControls, JvPageList, frameMnw2PumpUnit, Mask, JvExMask, JvSpin,
  JvDBSpinEdit;

var mHHelp: THookHelpSystem = nil;

function HelpFileFullPath(const FileName: string): string;
procedure InitializeHTMLHELP;

type
  lpfParameterType = (lpfHK, lpfVK, lpfVANI, lpfSS, lpfSY, lpfVKCB, lfpHani);
  hufParameterType = (hufHK, hufHani, hufVK, hufVANI, hufSS, hufSY, hufKDEP,
    hufSYTP, hufLVDA);
  THufParameterTypes = set of hufParameterType;
  TAdvParameterType = (advPRST, advPRCB);

  MT3DTimeData = (tdmN, tdmLength, tdmStepSize, tdmMaxSteps, tdmCalculated,
    tdmMult, tdmMax);
  MT3DDispersionData = (ddmN, ddmName, ddmHorDisp, ddmVertDisp, ddmMolDiffCoef);
  MT3DReactionData = (rdmN, rdmName, rdmBulkDensity, rdmSorpConst1,
    rdmSorpConst2, rdmRateConstDiss, rdmRateConstSorp, rdmDualPorosity,
    rdmStartingConcentration);
  MT3DPrintoutTimes = (ptmN, ptmTime);
  TGWM_ExternalColumns = (gecName, gecType, gecMin, gecMax, gecSP1);
  TGWM_BinaryColumns = (gbcName, gbcCount);
  TGWM_SummationConstraints = (gscName, gscCount, gscType, gscRightHandSide);
  TMnw2LossTypeChoices = (ltcThiem, ltcSkin, ltcGeneral, ltcSpecify);
  TMnw2LossTypeSet = set of TMnw2LossTypeChoices;
  TGwmStorageCol = (gwscName, gscStartSP, gscEndsSp, gscZoneChoice, gscZoneNumber);


  TfrmMODFLOW = class(TArgusForm)
    pnlBottom: TPanel;
    pageControlMain: TPageControl;
    tabProject: TTabSheet;
    gboxMFProjectInfo: TGroupBox;
    edProjectName: TEdit;
    edDate: TEdit;
    memoDescription: TMemo;
    adeTitle1: TArgusDataEntry;
    adeTitle2: TArgusDataEntry;
    lblProjectName: TLabel;
    lblDate: TLabel;
    lblDesc: TLabel;
    lblProjectTitle: TLabel;
    lblExported: TLabel;
    tabGeology: TTabSheet;
    gboxGeologicUnits: TGroupBox;
    pnlGeolUnitBottom: TPanel;
    tabMisc: TTabSheet;
    gboxRewetting: TGroupBox;
    comboWetCap: TComboBox;
    comboWetEq: TComboBox;
    adeHDRY: TArgusDataEntry;
    adeWettingFact: TArgusDataEntry;
    adeWetIterations: TArgusDataEntry;
    lblWetFlg: TLabel;
    lblDryCell: TLabel;
    lblWetFact: TLabel;
    lblCheckDry: TLabel;
    lblWetEq: TLabel;
    lblIWDFLG: TLabel;
    lblHDRY: TLabel;
    lblWETFCT: TLabel;
    lblIWETIT: TLabel;
    lblIHDWET: TLabel;
    tabStress: TTabSheet;
    tabTime: TTabSheet;
    gboxTime: TGroupBox;
    pnlTimeTop: TPanel;
    pnlTimeBottom: TPanel;
    pnlTimeButtons: TPanel;
    btnInsertTime: TButton;
    comboSteady: TComboBox;
    lblTrans: TLabel;
    lblStressPer: TLabel;
    lblISS: TLabel;
    lblNPER: TLabel;
    tabOutputFiles: TTabSheet;
    gboxOutputFiles: TGroupBox;
    pnlOutputFilesTop: TPanel;
    adeFileName: TArgusDataEntry;
    lblRootname: TLabel;
    pnlOutLeft: TPanel;
    pnlOutRight: TPanel;
    pnlOutputMain: TPanel;
    gboxHeadDrawdown: TGroupBox;
    lblExportHead: TLabel;
    lblExportDrawdown: TLabel;
    comboExportHead: TComboBox;
    comboExportDrawdown: TComboBox;
    gboxCellFlow: TGroupBox;
    pnlOutputBottom: TPanel;
    cbOneFlowFile: TCheckBox;
    cbFlowBudget: TCheckBox;
    tabOutputCtrl: TTabSheet;
    tabMOC3DSubGrid: TTabSheet;
    gboxMOC3DSubGrid: TGroupBox;
    adeMOC3DLay1: TArgusDataEntry;
    adeMOC3DLay2: TArgusDataEntry;
    adeMOC3DDecay: TArgusDataEntry;
    adeMOC3DDiffus: TArgusDataEntry;
    adeMOC3DCnoflow: TArgusDataEntry;
    comboMOC3DInterp: TComboBox;
    comboMOC3DReadRech: TComboBox;
    comboMOC3DSaveWell: TComboBox;
    lblMOC3DFirstUnit: TLabel;
    lblMOC3DLastUnit: TLabel;
    lblMOC3DDecayRate: TLabel;
    lblMOC3DMolDiffCoef: TLabel;
    lblMOC3DInterpScheme: TLabel;
    lblMOC3DConcInactive: TLabel;
    lblMOC3DReuseRechConc: TLabel;
    lblMOC3DSaveObsWell: TLabel;
    lblMOC3DISLAY1: TLabel;
    lblMOC3DISLAY2: TLabel;
    lblMOC3DDECAY: TLabel;
    lblMOC3DDIFFUS: TLabel;
    lblMOC3DINTRPL: TLabel;
    lblMOC3DCNOFLO: TLabel;
    lblMOC3DINCRCH: TLabel;
    lblMOC3DIOBSFL: TLabel;
    tabMOC3DParticles: TTabSheet;
    gboxMOC3DParticle: TGroupBox;
    pnlMOC3DParticleTop: TPanel;
    adeMOC3DMaxParticles: TArgusDataEntry;
    adeMOC3DMaxFrac: TArgusDataEntry;
    adeMOC3DLimitActiveCells: TArgusDataEntry;
    sgMOC3DParticles: TStringGrid;
    cbCustomParticle: TCheckBox;
    lblMOC3DMaxParticles: TLabel;
    lblMOC3DMaxFrac: TLabel;
    lblMOC3DMaxActiveVoid: TLabel;
    lblMOC3DInitParticles: TLabel;
    lblMOC3DNPMAX: TLabel;
    lblMOC3DCELDIS: TLabel;
    lblMOC3DFZERO: TLabel;
    lblMOC3DNPTPND: TLabel;
    tabMOC3DOut: TTabSheet;
    pnlMOC3DParticleBottom: TPanel;
    gboxOutput: TGroupBox;
    edNumPer: TEdit;
    btnDeleteTime: TButton;
    btnAddTime: TButton;
    tabPrivate: TTabSheet;
    gboxMFRun: TGroupBox;
    lblCreateOnly: TLabel;
    rbRun: TRadioButton;
    cbUseSolute: TCheckBox;
    rbCreate: TRadioButton;
    gboxOutputPackages: TGroupBox;
    cbExpBAS: TCheckBox;
    cbExpOC: TCheckBox;
    cbExpBCF: TCheckBox;
    cbExpRCH: TCheckBox;
    cbExpRIV: TCheckBox;
    cbExpWEL: TCheckBox;
    cbExpDRN: TCheckBox;
    cbExpGHB: TCheckBox;
    cbExpEVT: TCheckBox;
    cbExpMatrix: TCheckBox;
    cbExpCONC: TCheckBox;
    cbExpOBS: TCheckBox;
    adeMODFLOWPath: TArgusDataEntry;
    adeMOC3DPath: TArgusDataEntry;
    tabMOCIMP: TTabSheet;
    edMOC3DInitParticles: TEdit;
    gboxMOCIMP: TGroupBox;
    lblMOCIMPWeight: TLabel;
    lblMOCIMPNumIter: TLabel;
    lblMOCIMPDirection: TLabel;
    lblMOCIMPTolerance: TLabel;
    lblMOCIMPMaxIter: TLabel;
    lblMOCIMPFDTMTH: TLabel;
    lblMOCIMPNCXIT: TLabel;
    lblMOCIMPIDIREC: TLabel;
    lblMOCIMPEPSSLV: TLabel;
    lblMOCIMPMAXIT: TLabel;
    adeMOCWeightFactor: TArgusDataEntry;
    adeMOCNumIter: TArgusDataEntry;
    adeMOCTolerance: TArgusDataEntry;
    adeMOCMaxIter: TArgusDataEntry;
    statbarMain: TStatusBar;
    tabCustomize: TTabSheet;
    comboCustomize: TComboBox;
    lblInitHeadFormula: TLabel;
    tabStream: TTabSheet;
    tabMoreStresses: TTabSheet;
    gbMoreStresses: TGroupBox;
    cbExpHFB: TCheckBox;
    cbExpFHB: TCheckBox;
    gbFHBPackage: TGroupBox;
    cbFHB: TCheckBox;
    lblFHBNumTimes: TLabel;
    adeFHBNumTimes: TArgusDataEntry;
    lblNBDTIM: TLabel;
    lblIFHBSS: TLabel;
    comboFHBSteadyStateOption: TComboBox;
    lblFHBSteadyStateOption: TLabel;
    lblFHBHeadConcWeight: TLabel;
    adeFHBHeadConcWeight: TArgusDataEntry;
    lblHeadWeight: TLabel;
    lblFluxWeight: TLabel;
    adeFHBFluxConcWeight: TArgusDataEntry;
    lblFHBFluxConcWeight: TLabel;
    tabMODPATH: TTabSheet;
    adeModpathMAXSIZ: TArgusDataEntry;
    lblModpathMAXSIZ: TLabel;
    adeModpathNPART: TArgusDataEntry;
    lblModpathNPART: TLabel;
    cbModpathCOMPACT: TCheckBox;
    cbModpathBINARY: TCheckBox;
    adeModpathTBEGIN: TArgusDataEntry;
    lblModpathTBEGIN: TLabel;
    adeModpathBeginPeriod: TArgusDataEntry;
    lblModpathBeginPeriod: TLabel;
    adeModpathBeginStep: TArgusDataEntry;
    adeModpathEndPeriod: TArgusDataEntry;
    adeModpathEndStep: TArgusDataEntry;
    lblModpathBeginStep: TLabel;
    lblModpathEndPeriod: TLabel;
    lblModpathEndStep: TLabel;
    adeMODPATHMaxReleaseTime: TArgusDataEntry;
    lblMODPATHMaxReleaseTime: TLabel;
    tabModpathTimes: TTabSheet;
    lblMODPATHOutputTimeCount: TLabel;
    tabZoneBudget: TTabSheet;
    pnlZoneBud1: TPanel;
    adeZonebudgetTitle: TArgusDataEntry;
    sgZoneBudCompZones: TStringGrid;
    lblZonebudgetTitle: TLabel;
    lblZoneBudCompZones: TLabel;
    adeZoneBudCompZoneCount: TArgusDataEntry;
    lblZoneBudCompZoneCount: TLabel;
    sgZondbudTimes: TStringGrid;
    rgZonebudTimesChoice: TRadioGroup;
    adeMODPATHOutputTimeCount: TArgusDataEntry;
    lblZonebudSpecTime: TLabel;
    lblNVALUES: TLabel;
    pnlMODPATH1: TPanel;
    pnlMODPATHTitle: TPanel;
    sgMODPATHOutputTimes: TStringGrid;
    adeZonebudgetPath: TArgusDataEntry;
    rbRunZonebudget: TRadioButton;
    rbCreateZonebudget: TRadioButton;
    tabAbout: TTabSheet;
    rbMPATHCreate: TRadioButton;
    rbMPATHRun: TRadioButton;
    adeMODPATHPath: TArgusDataEntry;
    tabMODPATHOptions: TTabSheet;
    tabProblem: TTabSheet;
    reProblem: TRichEdit;
    pnlProblem: TPanel;
    btnDeveloper: TButton;
    pnlFHB1: TPanel;
    pnlFHB2: TPanel;
    lblFHB: TLabel;
    sgFHBTimes: TStringGrid;
    cbExpStr: TCheckBox;
    comboMOC3D_IDIREC: TComboBox;
    SaveDialog1: TSaveDialog;
    OpenDialog1: TOpenDialog;
    tabPrivate2: TTabSheet;
    lblMOC3DFirstRow: TLabel;
    adeMOC3DRow1: TArgusDataEntry;
    lblMOC3DISROW1: TLabel;
    lblMOC3DLastRow: TLabel;
    adeMOC3DRow2: TArgusDataEntry;
    lblMOC3DISROW2: TLabel;
    lblMOC3DFirstColumn: TLabel;
    adeMOC3DCol1: TArgusDataEntry;
    lblMOC3DISCOL1: TLabel;
    lblMOC3DLastColumn: TLabel;
    adeMOC3DCol2: TArgusDataEntry;
    lblMOC3DISCOL2: TLabel;
    lblMOC3DSubgridInfo: TLabel;
    rgMOC3DSolver: TRadioGroup;
    btnOpenVal: TBitBtn;
    btnSaveVal: TBitBtn;
    gboxStressPackages: TGroupBox;
    lblRech: TLabel;
    lblRechOpt: TLabel;
    lblRiver: TLabel;
    lblWell: TLabel;
    lblDrain: TLabel;
    lblGenHeadBound: TLabel;
    lblEvap: TLabel;
    lblEvapOpt: TLabel;
    lblNRCHOP: TLabel;
    cbRCH: TCheckBox;
    cbRIV: TCheckBox;
    cbWEL: TCheckBox;
    cbDRN: TCheckBox;
    cbGHB: TCheckBox;
    cbEVT: TCheckBox;
    comboRchSteady: TComboBox;
    comboRivSteady: TComboBox;
    comboWelSteady: TComboBox;
    comboDrnSteady: TComboBox;
    comboGhbSteady: TComboBox;
    comboEvtSteady: TComboBox;
    comboRchOpt: TComboBox;
    comboEvtOption: TComboBox;
    gbStream: TGroupBox;
    lblStream: TLabel;
    cbSTR: TCheckBox;
    comboStreamOption: TComboBox;
    comboModelUnits: TComboBox;
    cbStreamCalcFlow: TCheckBox;
    cbStreamTrib: TCheckBox;
    cbStreamDiversions: TCheckBox;
    lblStreamModelUnits: TLabel;
    rgSolMeth: TRadioGroup;
    gboxMFListing: TGroupBox;
    lblPrintHead: TLabel;
    lblPrintDrawdown: TLabel;
    lblPrintBudget: TLabel;
    lblHeadPrintN: TLabel;
    lblDrawdownPrintN: TLabel;
    lblBudgetPrintN: TLabel;
    comboHeadPrintFreq: TComboBox;
    comboDrawdownPrintFreq: TComboBox;
    comboBudPrintFreq: TComboBox;
    adeHeadPrintFreq: TArgusDataEntry;
    adeDrawdownPrintFreq: TArgusDataEntry;
    adeBudPrintFreq: TArgusDataEntry;
    gboxOutputExternal: TGroupBox;
    lblHeadExpFreq: TLabel;
    lblDrawdownExpFreq: TLabel;
    lblFlowExpFreq: TLabel;
    lblFlowExportN: TLabel;
    lblDrawdownExportN: TLabel;
    lblExportHeadN: TLabel;
    comboHeadExportFreq: TComboBox;
    comboDrawdownExportFreq: TComboBox;
    comboBudExportFreq: TComboBox;
    adeHeadExportFreq: TArgusDataEntry;
    adeDrawdownExportFreq: TArgusDataEntry;
    adeBudExportFreq: TArgusDataEntry;
    lblExpBCFFlow: TLabel;
    lblExpRCHFlow: TLabel;
    lblExpDRNFlow: TLabel;
    lblExpGHBFlow: TLabel;
    cbFlowBCF: TCheckBox;
    cbFlowRCH: TCheckBox;
    cbFlowDrn: TCheckBox;
    cbFlowGHB: TCheckBox;
    lblExpRIVFlow: TLabel;
    lblExpWELFlow: TLabel;
    lblExpEVTFlow: TLabel;
    lblExpFHBFlow: TLabel;
    lblExpSTRFlow: TLabel;
    cbFlowSTR: TCheckBox;
    cbFlowFHB: TCheckBox;
    cbFlowEVT: TCheckBox;
    cbFlowWel: TCheckBox;
    cbFlowRiv: TCheckBox;
    cbSpecifyFlowFiles: TCheckBox;
    lblMatrixStorage: TLabel;
    comboIAPART: TComboBox;
    lblIAPART: TLabel;
    gboxMisc: TGroupBox;
    lblISTRT: TLabel;
    lblKeepInitHeads: TLabel;
    lblHeadValue: TLabel;
    lblHNOFLOW: TLabel;
    comboISTRT: TComboBox;
    adeHNOFLO: TArgusDataEntry;
    cbStrPrintFlows: TCheckBox;
    lblExpSTRFlow2: TLabel;
    cbFlowSTR2: TCheckBox;
    lblExpSTRFlow1A: TLabel;
    lblStrPrintFlows: TLabel;
    lblNEVTOP: TLabel;
    pnlGeoButtons: TPanel;
    pnlGeolUnitsButtons: TPanel;
    btnInsertUnit: TButton;
    btnDeleteUnit: TButton;
    btnAdd: TButton;
    gbMPATHReftime: TGroupBox;
    lblMPATHStartTimeMethod: TLabel;
    comboMPATHStartTimeMethod: TComboBox;
    lblMPATHRefPeriod: TLabel;
    adeMPATHRefPeriod: TArgusDataEntry;
    lblMPATHRefStep: TLabel;
    adeMPATHRefStep: TArgusDataEntry;
    lblMPATHRefTimeInStep: TLabel;
    adeMPATHRefTimeInStep: TArgusDataEntry;
    lblMPATHRefTime: TLabel;
    adeMPATHRefTime: TArgusDataEntry;
    gbMPATHStop: TGroupBox;
    cbMPATHStopTime: TCheckBox;
    adeMODPATHStopTime: TArgusDataEntry;
    cbMPATHTrackStop: TCheckBox;
    adeMPATHMaxTrack: TArgusDataEntry;
    lblMODPATHStopTime: TLabel;
    lblMPATHMaxTrack: TLabel;
    lblMPATHTrackStop: TLabel;
    gbMPATHOutputTime: TGroupBox;
    adeMPATHMaxTimes: TArgusDataEntry;
    lblMPATHMaxTimes: TLabel;
    adeMPATHTimeInt: TArgusDataEntry;
    lblMPATHTimeInt: TLabel;
    comboMPATHTimeMethod: TComboBox;
    lblMPATHTimeMethod: TLabel;
    gbMPATHMode: TGroupBox;
    comboMPATHOutMode: TComboBox;
    lblMPATHOutMode: TLabel;
    cbMPATHComputeLoc: TCheckBox;
    lblMPATHComputeLoc: TLabel;
    lblMPATHStopZone: TLabel;
    adeMPATHStopZone: TArgusDataEntry;
    cbMPATHStop: TCheckBox;
    lblMPATHStop: TLabel;
    comboMPATHWhichParticles: TComboBox;
    gbMPATHMisc: TGroupBox;
    lblMPATHDirection: TLabel;
    comboMPATHDirection: TComboBox;
    cbMPathBudget: TCheckBox;
    adeMPathErrorTolerance: TArgusDataEntry;
    lblMPATHSinkTreatment: TLabel;
    comboMPATHSinkTreatment: TComboBox;
    lblMPATHSinkStrength: TLabel;
    adeMPATHSinkStrength: TArgusDataEntry;
    cbMPathSummarize: TCheckBox;
    lblMPathErrorTolerance: TLabel;
    cbRCHRetain: TCheckBox;
    cbRIVRetain: TCheckBox;
    cbWELRetain: TCheckBox;
    cbDRNRetain: TCheckBox;
    cbGHBRetain: TCheckBox;
    cbEVTRetain: TCheckBox;
    cbSTRRetain: TCheckBox;
    cbFHBRetain: TCheckBox;
    comboHeadPrintStyle: TComboBox;
    comboHeadPrintFormat: TComboBox;
    comboDrawdownPrintStyle: TComboBox;
    comboDrawdownPrintFormat: TComboBox;
    cbActiveBoundary: TCheckBox;
    cbCalibrate: TCheckBox;
    cbShowWarnings: TCheckBox;
    tabAgeDpDk: TTabSheet;
    gbAge: TGroupBox;
    cbAge: TCheckBox;
    adeAge: TArgusDataEntry;
    lblAge: TLabel;
    gbDualPorosity: TGroupBox;
    cbDualPorosity: TCheckBox;
    lblDualPOutOption: TLabel;
    comboDualPOutOption: TComboBox;
    gbSimpleReactions: TGroupBox;
    cbIDKRF: TCheckBox;
    cbIDKFO: TCheckBox;
    cbIDKFS: TCheckBox;
    cbSimpleReactions: TCheckBox;
    PageControlSolvers: TPageControl;
    tabSIP: TTabSheet;
    tabDE4: TTabSheet;
    tabPCG2: TTabSheet;
    tabSOR: TTabSheet;
    gboxSIP: TGroupBox;
    lblSIPMaxIter: TLabel;
    lblSIPNumParam: TLabel;
    lblSIPAcclParam: TLabel;
    lblSIPConv: TLabel;
    lblSIPIterSeedChoice: TLabel;
    lblSIPIterSeed: TLabel;
    lblSIPPrintInt: TLabel;
    lblSIPMXITER: TLabel;
    lblSIPNPARM: TLabel;
    lblSIPACCL: TLabel;
    lblSIPHCLOSE: TLabel;
    lblSIPIPCALC: TLabel;
    lblSIPWSEED: TLabel;
    lblSIPIPRSIP: TLabel;
    adeSIPMaxIter: TArgusDataEntry;
    adeSIPNumParam: TArgusDataEntry;
    adeSIPAcclParam: TArgusDataEntry;
    adeSIPConv: TArgusDataEntry;
    adeSIPIterSeed: TArgusDataEntry;
    adeSIPPrint: TArgusDataEntry;
    comboSIPIterSeed: TComboBox;
    gboxDE4: TGroupBox;
    lblDE4MaxIt: TLabel;
    lblDE4MaxEqU: TLabel;
    lblDE4MaxEqL: TLabel;
    lblDE4MaxBand: TLabel;
    lblDE4Freq: TLabel;
    lblDE4Print: TLabel;
    lblDE4Acceleration: TLabel;
    lblDE4Conv: TLabel;
    lblDE4Time: TLabel;
    lblDE4ITMX: TLabel;
    lblDE4MXUP: TLabel;
    lblDE4MXLOW: TLabel;
    lblDE4MXBW: TLabel;
    lblDE4IFREQ: TLabel;
    lblDE4MUTD4: TLabel;
    lblDE4ACCL: TLabel;
    lblDE4HCLOSE: TLabel;
    lblDE4IPRD4: TLabel;
    adeDE4MaxIter: TArgusDataEntry;
    adeDE4MaxUp: TArgusDataEntry;
    adeDE4MaxLow: TArgusDataEntry;
    adeDE4Band: TArgusDataEntry;
    adeDE4Accl: TArgusDataEntry;
    adeDE4Conv: TArgusDataEntry;
    adeDE4TimeStep: TArgusDataEntry;
    comboDE4Freq: TComboBox;
    comboDE4Print: TComboBox;
    gboxPCG2: TGroupBox;
    lblPCGMaxOuter: TLabel;
    lblPCGMaxInner: TLabel;
    lblPCGMethod: TLabel;
    lblPCGMaxChangeHead: TLabel;
    lblPCGMaxResidual: TLabel;
    lblPCGRelaxation: TLabel;
    lblPCGMaxEigen: TLabel;
    lblPCGPrintInterval: TLabel;
    lblPCGPrintControl: TLabel;
    lblPCGDampingFactor: TLabel;
    lblPCGMXITER: TLabel;
    lblPCGITER1: TLabel;
    lblPCGNPCOND: TLabel;
    lblPCGHCLOSE: TLabel;
    lblPCGRCLOSE: TLabel;
    lblPCGRELAX: TLabel;
    lblPCGNBPOL: TLabel;
    lblPCGIPRPCG: TLabel;
    lblPCGMUTPCG: TLabel;
    lblPCGDAMP: TLabel;
    adePCGMaxOuter: TArgusDataEntry;
    adePCGMaxInner: TArgusDataEntry;
    comboPCGPrecondMeth: TComboBox;
    adePCGMaxHeadChange: TArgusDataEntry;
    adePCGMaxResChange: TArgusDataEntry;
    adePCGRelax: TArgusDataEntry;
    comboPCGEigenValue: TComboBox;
    adePCGPrintInt: TArgusDataEntry;
    comboPCGPrint: TComboBox;
    adePCGDamp: TArgusDataEntry;
    gboxSOR: TGroupBox;
    lblSORMaxIterations: TLabel;
    lblSORAcceleration: TLabel;
    lblSORConvergence: TLabel;
    lblSORPrintInterval: TLabel;
    lblSORMXITER: TLabel;
    lblSORACCL: TLabel;
    lblSORHCLOSE: TLabel;
    lblSORIPRSOR: TLabel;
    adeSORMaxIter: TArgusDataEntry;
    adeSORAccl: TArgusDataEntry;
    adeSORConv: TArgusDataEntry;
    adeSORPri: TArgusDataEntry;
    lblAgeWarning: TLabel;
    cbIDPTIM_Decay: TCheckBox;
    cbIDPTIM_Growth: TCheckBox;
    cbIDKTIM_DisDecay: TCheckBox;
    cbIDKTIM_SorbDecay: TCheckBox;
    cbIDKTIM_DisGrowth: TCheckBox;
    cbIDKTIM_SorbGrowth: TCheckBox;
    gbInitialHeads: TGroupBox;
    cbInitial: TCheckBox;
    edInitial: TEdit;
    btnInitialSelect: TBitBtn;
    lblInitialHeads: TLabel;
    cbProgressBar: TCheckBox;
    cbIDPTIM_LinExch: TCheckBox;
    tabParameters: TTabSheet;
    PageControlParameters: TPageControl;
    tabLayerProperty: TTabSheet;
    dgLPFParameters: TDataGrid;
    tabMultZone: TTabSheet;
    Splitter1: TSplitter;
    Splitter2: TSplitter;
    dg3dLPFParameterClusters: TRBWDataGrid3d;
    Panel1: TPanel;
    adeLPFParamCount: TArgusDataEntry;
    lblLPFParamCount: TLabel;
    tabRechargeParam: TTabSheet;
    Panel2: TPanel;
    lblRCHParamCount: TLabel;
    adeRCHParamCount: TArgusDataEntry;
    dgRCHParametersN: TDataGrid;
    Splitter3: TSplitter;
    tabEvapParam: TTabSheet;
    Panel3: TPanel;
    lblEVTParamCount: TLabel;
    adeEVTParamCount: TArgusDataEntry;
    dgEVTParametersN: TDataGrid;
    Splitter4: TSplitter;
    dgTime: TDataGrid;
    lblExpLPFFlow: TLabel;
    cbFlowLPF: TCheckBox;
    tabRivParam: TTabSheet;
    dgRIVParametersN: TDataGrid;
    Panel4: TPanel;
    lblRIVParamCount: TLabel;
    adeRIVParamCount: TArgusDataEntry;
    tabWelParam: TTabSheet;
    dgWELParametersN: TDataGrid;
    Panel5: TPanel;
    lblWELParamCount: TLabel;
    adeWELParamCount: TArgusDataEntry;
    cbUseSimpleReactions: TCheckBox;
    cbUseDualPorosity: TCheckBox;
    lblAgeWarning2: TLabel;
    tabDrnParam: TTabSheet;
    dgDRNParametersN: TDataGrid;
    Panel6: TPanel;
    lblDRNParamCount: TLabel;
    adeDRNParamCount: TArgusDataEntry;
    tabGhbParam: TTabSheet;
    dgGHBParametersN: TDataGrid;
    Panel7: TPanel;
    lblGHBParamCount: TLabel;
    adeGHBParamCount: TArgusDataEntry;
    tabHFBParam: TTabSheet;
    dgHFBParameters: TDataGrid;
    Panel8: TPanel;
    lblHFBParamCount: TLabel;
    adeHFBParamCount: TArgusDataEntry;
    cbExpDIS: TCheckBox;
    cbExpLPF: TCheckBox;
    cbExpMULT: TCheckBox;
    cbExpZONE: TCheckBox;
    tabObservations: TTabSheet;
    PageControlObservations: TPageControl;
    tabGHBObservations: TTabSheet;
    tabDrainObservations: TTabSheet;
    tabRiverObservations: TTabSheet;
    tabHeadFluxObservations: TTabSheet;
    cbGBOB: TCheckBox;
    cbDROB: TCheckBox;
    cbRVOB: TCheckBox;
    cbCHOB: TCheckBox;
    tabHeadObservations: TTabSheet;
    gbHeadObs: TGroupBox;
    lblObsHeadCount: TLabel;
    lblWeightedHeadObsLayerCount: TLabel;
    lblHeadObsLayerCount: TLabel;
    lblHeadObsErrMult: TLabel;
    cbHeadObservations: TCheckBox;
    cbWeightedHeadObservations: TCheckBox;
    adeHeadObsLayerCount: TArgusDataEntry;
    adeWeightedHeadObsLayerCount: TArgusDataEntry;
    adeObsHeadCount: TArgusDataEntry;
    adeHeadObsErrMult: TArgusDataEntry;
    gbObservationsOutput: TGroupBox;
    cbCreateObsOutput: TCheckBox;
    comboObservationScaling: TComboBox;
    tabSensitivity: TTabSheet;
    panelSensitivity: TPanel;
    adeSensitivityCount: TArgusDataEntry;
    lblSensitivityCount: TLabel;
    dgSensitivity: TDataGrid;
    comboSensEst: TComboBox;
    comboSensMemory: TComboBox;
    rgSensPrint: TRadioGroup;
    cbSensBinary: TCheckBox;
    comboSensFormat: TComboBox;
    lblSensFormat: TLabel;
    cbSensPrint: TCheckBox;
    lblSensEst: TLabel;
    lblSensMemory: TLabel;
    cbHOB: TCheckBox;
    cbSEN: TCheckBox;
    tabParamEst: TTabSheet;
    pagecontrolParamEst: TPageControl;
    tabParamEstCov: TTabSheet;
    tabPriorInfoEstEquations: TTabSheet;
    tabParamEstControlParam: TTabSheet;
    gbParamEst: TGroupBox;
    lblMaxParamEstIterations: TLabel;
    lblMaxParamChange: TLabel;
    lblParamEstTol: TLabel;
    lblParamEstSecClosCrit: TLabel;
    adeMaxParamEstIterations: TArgusDataEntry;
    adeMaxParamChange: TArgusDataEntry;
    adeParamEstTol: TArgusDataEntry;
    adeParamEstSecClosCrit: TArgusDataEntry;
    gbParamOccasional: TGroupBox;
    lblBealeInput: TLabel;
    lblYcintInput: TLabel;
    lblParamEstRMatrixIterations: TLabel;
    lblParamEstRMatrixCriterion: TLabel;
    comboBealeInput: TComboBox;
    comboYcintInput: TComboBox;
    cbParamEstScreenPrint: TCheckBox;
    cbParamEstRMatrix: TCheckBox;
    adeParamEstRMatrixIterations: TArgusDataEntry;
    adeParamEstRMatrixCriterion: TArgusDataEntry;
    tabMiscParamEstOptions: TTabSheet;
    gbParamEstPrintControl: TGroupBox;
    lblParamEstVarPrintFormat: TLabel;
    lblParamEstStatisticsPrint: TLabel;
    comboParamEstVarPrintFormat: TComboBox;
    comboParamEstStatisticsPrint: TComboBox;
    cbParamEstEigenvectorPrint: TCheckBox;
    gbRarelyModified: TGroupBox;
    lblParamEstSearchDirection: TLabel;
    lblParamEstCoarseConvCrit: TLabel;
    adeParamEstSearchDirection: TArgusDataEntry;
    adeParamEstCoarseConvCrit: TArgusDataEntry;
    comboLastx: TComboBox;
    Panel14: TPanel;
    Panel15: TPanel;
    adeParamEstCovNameCount: TArgusDataEntry;
    lblParamEstCovNameCount: TLabel;
    dgParamEstCovNames: TDataGrid;
    dgParamEstCovariance: TDataGrid;
    Panel16: TPanel;
    adePriorInfoEquationCount: TArgusDataEntry;
    lblLastx: TLabel;
    dgPriorEquations: TDataGrid;
    cbPESExport: TCheckBox;
    lblObservationScaling: TLabel;
    lblCreateObsOutput: TLabel;
    adeModflow2000Path: TArgusDataEntry;
    gbHeadFluxObservations: TGroupBox;
    lblHeadFluxObsLayerCount: TLabel;
    lblObsHeadFluxTimeCount: TLabel;
    lblHeadFluxObsPrintFormats: TLabel;
    lblHeadFluxObsErrMult: TLabel;
    lblHeadFluxObsBoundCount: TLabel;
    adeHeadFluxObsLayerCount: TArgusDataEntry;
    adeObsHeadFluxTimeCount: TArgusDataEntry;
    comboHeadFluxObsPrintFormats: TComboBox;
    adeHeadFluxObsErrMult: TArgusDataEntry;
    adeHeadFluxObsBoundCount: TArgusDataEntry;
    gbGHBObservations: TGroupBox;
    lblObsGHBTimeCount: TLabel;
    lblGHBObsLayerCount: TLabel;
    lblGHBObsPrintFormats: TLabel;
    lblGHBObsErrMult: TLabel;
    lblGHBObsBoundCount: TLabel;
    cbGHBObservations: TCheckBox;
    cbSpecifyGHBCovariances: TCheckBox;
    adeGHBObsLayerCount: TArgusDataEntry;
    adeObsGHBTimeCount: TArgusDataEntry;
    comboGHBObsPrintFormats: TComboBox;
    adeGHBObsErrMult: TArgusDataEntry;
    adeGHBObsBoundCount: TArgusDataEntry;
    gbDrainObservations: TGroupBox;
    lblDRNObsLayerCount: TLabel;
    lblObsDRNTimeCount: TLabel;
    lblDrainObsPrintFormats: TLabel;
    lblDrnObsErrMult: TLabel;
    lblDRNObsBoundCount: TLabel;
    cbDRNObservations: TCheckBox;
    cbSpecifyDRNCovariances: TCheckBox;
    adeDRNObsLayerCount: TArgusDataEntry;
    adeObsDRNTimeCount: TArgusDataEntry;
    comboDrainObsPrintFormats: TComboBox;
    adeDrnObsErrMult: TArgusDataEntry;
    adeDRNObsBoundCount: TArgusDataEntry;
    gbRiverObservations: TGroupBox;
    lblRIVObsLayerCount: TLabel;
    lblObsRIVTimeCount: TLabel;
    lblRiverObsPrintFormats: TLabel;
    lblRivObsErrMult: TLabel;
    lblRIVObsBoundCount: TLabel;
    cbRIVObservations: TCheckBox;
    cbSpecifyRiverCovariances: TCheckBox;
    adeRIVObsLayerCount: TArgusDataEntry;
    adeObsRIVTimeCount: TArgusDataEntry;
    comboRiverObsPrintFormats: TComboBox;
    adeRivObsErrMult: TArgusDataEntry;
    adeRIVObsBoundCount: TArgusDataEntry;
    Panel9: TPanel;
    dgNegParam: TDataGrid;
    Panel10: TPanel;
    Splitter5: TSplitter;
    lblParamEstCovNames: TLabel;
    lblPriorInfoEquationCount: TLabel;
    lblPriorEquations: TLabel;
    gbProcesses: TGroupBox;
    cbObservations: TCheckBox;
    cbSensitivity: TCheckBox;
    cbParamEst: TCheckBox;
    cbMOC3D: TCheckBox;
    cbMODPATH: TCheckBox;
    cbZonebudget: TCheckBox;
    lblMOC3DParticlLoc: TLabel;
    comboMOC3DPartFileType: TComboBox;
    lblMOC3DDispCoef: TLabel;
    comboMOC3DVelFileType: TComboBox;
    comboMOC3DConcFileType: TComboBox;
    lblMOC3DConc: TLabel;
    lblMOC3DVelocity: TLabel;
    comboMOC3DPartFreq: TComboBox;
    comboMOC3DDispFreq: TComboBox;
    comboMOC3DVelFreq: TComboBox;
    comboMOC3DConcFreq: TComboBox;
    lblMOC3DConcN: TLabel;
    lblMOC3DVelocityN: TLabel;
    lblMOC3DDispCoefN: TLabel;
    lblMOC3DParticlLocN: TLabel;
    adeMOC3DPartFreq: TArgusDataEntry;
    adeMOC3DDispFreq: TArgusDataEntry;
    adeMOC3DVelFreq: TArgusDataEntry;
    adeMOC3DConcFreq: TArgusDataEntry;
    rgMOC3DConcFormat: TRadioGroup;
    Panel11: TPanel;
    sgMOC3DTransParam: TStringGrid;
    Panel12: TPanel;
    lblNumMOC3DGeolUnits: TLabel;
    adeMOCNumLayers: TArgusDataEntry;
    lblNumMOC3DLay: TLabel;
    cbMOC3DNoDisp: TCheckBox;
    tabAdvectionObservations: TTabSheet;
    gbAdvObservations: TGroupBox;
    lblAdvectObsLayerCount: TLabel;
    lblAdvectObsStartLayerCount: TLabel;
    lblAdvObsPrintFormats: TLabel;
    lblAdvObsBoundCount: TLabel;
    cbSpecifyAdvCovariances: TCheckBox;
    adeAdvectObsLayerCount: TArgusDataEntry;
    adeAdvectObsStartLayerCount: TArgusDataEntry;
    comboAdvObsPrintFormats: TComboBox;
    adeAdvObsBoundCount: TArgusDataEntry;
    cbAdvObs: TCheckBox;
    rgAdvObsDisplacementOption: TRadioGroup;
    adeAdvstp: TArgusDataEntry;
    lblAdvstp: TLabel;
    rgPartDisp: TRadioGroup;
    cbADOB: TCheckBox;
    lblFlowLak: TLabel;
    cbFlowLak: TCheckBox;
    cbExpLAK: TCheckBox;
    lblRchSteady: TLabel;
    lblRivSteady: TLabel;
    lblWelSteady: TLabel;
    lblDrnSteady: TLabel;
    lblGhbSteady: TLabel;
    lblEvtSteady: TLabel;
    lblStreamOption: TLabel;
    tabPackages: TTabSheet;
    pageControlPackages: TPageControl;
    tabFlowPackages: TTabSheet;
    gbIBS: TGroupBox;
    lblIBS: TLabel;
    cbIBS: TCheckBox;
    cbUseIBS: TCheckBox;
    lblIBSPrintFrequency: TLabel;
    comboIBSPrintFrequency: TComboBox;
    lblIBSPrintFrequencyN: TLabel;
    adeIBSPrintFrequency: TArgusDataEntry;
    comboIBSPrintFormat: TComboBox;
    comboIBSPrintStyle: TComboBox;
    lblIBSSaveFrequency: TLabel;
    comboIBSSaveFrequency: TComboBox;
    lblIBSSaveFrequencyN: TLabel;
    adeIBSSaveFrequency: TArgusDataEntry;
    lblFlowIBS: TLabel;
    cbFlowIBS: TCheckBox;
    cbExpIBS: TCheckBox;
    cbTips: TCheckBox;
    lblFlowRES: TLabel;
    cbFlowRES: TCheckBox;
    cbExpRES: TCheckBox;
    gbEllam: TGroupBox;
    lblEllamColumnExp: TLabel;
    lblEllamRowExp: TLabel;
    lblEllamLayerExp: TLabel;
    lblEllamTimeExp: TLabel;
    adeEllamColumnExp: TArgusDataEntry;
    adeEllamRowExp: TArgusDataEntry;
    adeEllamLayerExp: TArgusDataEntry;
    adeEllamTimeExp: TArgusDataEntry;
    lblNSCEXP: TLabel;
    lblNSREXP: TLabel;
    lblNSLEXP: TLabel;
    lblNTEXP: TLabel;
    tabMOC3D: TTabSheet;
    PageControlMOC3D: TPageControl;
    BitBtnHelp: TBitBtn;
    btnOK: TBitBtn;
    btnCancel: TBitBtn;
    gbTransientLeakage: TGroupBox;
    dgIBS: TDataGrid;
    cbTLK: TCheckBox;
    cbTLKRetain: TCheckBox;
    lblTLK: TLabel;
    adeTLKNumberOfTerms: TArgusDataEntry;
    lblTLKNumberOfTerms: TLabel;
    cbTLKSaveRestartFile: TCheckBox;
    cbTLKStartFromRestart: TCheckBox;
    lblTLKRestartFile: TLabel;
    edTLKRestartFile: TEdit;
    btnTLKRestartFile: TBitBtn;
    lblFlowTLK: TLabel;
    cbFlowTLK: TCheckBox;
    cbExpTLK: TCheckBox;
    rbModflow96: TRadioButton;
    rbMODFLOW2000: TRadioButton;
    lblLengthUnits: TLabel;
    comboLengthUnits: TComboBox;
    comboTimeUnits: TComboBox;
    lblITMUNI: TLabel;
    rgMode: TRadioGroup;
    Panel13: TPanel;
    lblHorFlowBar: TLabel;
    cbHFB: TCheckBox;
    cbHFBRetain: TCheckBox;
    rgFlowPackage: TRadioGroup;
    adeRMAR: TArgusDataEntry;
    adeRMARM: TArgusDataEntry;
    lblRMAR: TLabel;
    lblRMARM: TLabel;
    lblDiffusUnits: TLabel;
    lblHdryUnits: TLabel;
    lblLakeOutput: TLabel;
    btnShowTip: TButton;
    tabModpathGroup: TTabSheet;
    pageControlModpath: TPageControl;
    adeResanPath: TArgusDataEntry;
    btnImport: TButton;
    adeYcintPath: TArgusDataEntry;
    adeBealePath: TArgusDataEntry;
    cbResan: TCheckBox;
    cbYcint: TCheckBox;
    cbBeale: TCheckBox;
    cbIAP: TCheckBox;
    adeMODPATH41Path: TArgusDataEntry;
    rgPriorInfoDataType: TRadioGroup;
    btnModflowImport: TButton;
    tabSFR_Parameters: TTabSheet;
    dgSFRParametersN: TDataGrid;
    Panel17: TPanel;
    lblSFRParamCount: TLabel;
    adeSFRParamCount: TArgusDataEntry;