# 
# Remove all files from ReadFileValues PIE.
Evaluate expression: MODFLOW_RF_Clear_Files()
# 
Loop for: Blocks
	If: (Row()=NumRows())&(Column()=NumColumns())
		If: !MF_MT3DMS()
			Alert: "Error in export of MT3DMS. Contact PIE developer for assistance."
		End if
	End if
End loop
Evaluate expression: MODFLOW_RF_Save_Files()
Evaluate expression: MODFLOW_RF_Clear_Files()

