unit ProjectFunctions;

interface

{ProjectFunctions defines the PIE functions for creating a new model,
 editing the non-spatial data of that model, saving and loading models,
 and freeing the model data when the model is closed. It has has a function
 to lock or unlock the recharge elevation as appropriate.  The latter may
 be incorporated into the classes defined in ANE_LayerUnit in the future.}

uses Windows, AnePIE, Forms, sysutils, Controls, classes, Dialogs, Stdctrls;

function GProjectNew(Handle: ANE_PTR; rPIEHandle: ANE_PTR_PTR;
  rLayerTemplate: ANE_STR_PTR): ANE_BOOL; cdecl;

function GEditForm(aneHandle: ANE_PTR;
  PIEHandle: ANE_PTR): ANE_BOOL; cdecl;

procedure GClearForm(aneHandle: ANE_PTR; PIEHandle: ANE_PTR); cdecl;

procedure GSaveForm(aneHandle: ANE_PTR; PIEHandle: ANE_PTR;
  rSaveInfo: ANE_STR_PTR); cdecl;

procedure GLoadForm(aneHandle: ANE_PTR; rPIEHandle: ANE_PTR_PTR;
  const LoadInfo: ANE_STR); cdecl;

function EditForm: boolean;

function IniFile(Handle: HWnd): string;

var
  FormDataAsString: string;
  LayerStructureString: string;
  AnANE_STR: ANE_STR = nil;

implementation

uses
{$IFDEF Debug}
  DebugUnit,
{$ENDIF}
  Variables, ModflowUnit, MFLayerStructureUnit, GetANEFunctionsUnit,
  ANE_LayerUnit, ReadOldUnit, ReadOldMT3D, ANECB, CheckVersionFunction,
  UtilityFunctions, ArgusDataEntry, ArgusFormUnit, FixMoreNamesUnit,
  OptionsUnit, mpathplotUnit, SelectPostFile, ModflowImport, MFGenParam;

var
  VersionChecked: boolean = False;

procedure CheckVersion(const aneHandle: ANE_PTR);
const
  MajorVersion = 4;
  MinorVersion = 2;
  Update = 0;
  version = 'w';
var
  ArgusVersion: string;
  FormatString: string;
begin
  if not VersionChecked and not CheckArgusVersion(aneHandle,
    MajorVersion, MinorVersion, Update, version, ArgusVersion) then
  begin
    Beep;
    if CheckArgusVersion(aneHandle, MajorVersion, MinorVersion, Update, 'q',
      ArgusVersion) then
    begin
      FormatString := 'Unless you are using the student version of Argus ONE, '
        + 'you are not using the most recent version of Argus ONE.  '
        + 'Although, the MODFLOW GUI will work '
        + 'with this version, a more recent version is available for those '
        + 'who have a full license for Argus ONE.';
    end
    else
    begin
      FormatString := 'You are not using the most recent version of Argus ONE.  '
        + 'You are using version "%s".  The MODFLOW GUI has been most '
        + 'extensively tested with version %d.%d.%.d%s but it may work with '
        + 'some earlier versions of Argus ONE, too.  It would be a good idea '
        + 'to get the current version.';
    end;

    MessageDlg(Format(FormatString,
      [ArgusVersion, MajorVersion, MinorVersion, Update, version]),
      mtWarning, [mbOK], 0);
  end;
  VersionChecked := True;
end;

function EditForm: boolean;
var
  UnreadData: TStringlist;
  VersionInString: string;
begin
  frmMODFLOW.memoDescription.HandleNeeded;
  frmMODFLOW.memoReferences.HandleNeeded;
  FormDataAsString := frmMODFLOW.FormToString(nil, nil,
    rsDeveloper);
  frmMODFLOW.UpdateCaptions;
  if frmMODFLOW.ShowModal = mrOK then
  begin
    frmMODFLOW.MFLayerStructure.OK(frmMODFLOW.CurrentModelHandle);
    if frmMODFLOW.NeedToUpdateMOC3DSubgrid then
    begin
      frmMODFLOW.UpdateMOC3DSubgrid;
      frmMODFLOW.NeedToUpdateMOC3DSubgrid := False;
    end;
    result := True;
  end
  else // if frmMODFLOW.ShowModal = mrOK else
  begin
    Screen.Cursor := crHourGlass;
    frmMODFLOW.Cancelling := True;
    try
      UnreadData := TStringlist.Create;
      try // try 1
        frmMODFLOW.memoDescription.HandleNeeded;
        frmMODFLOW.memoReferences.HandleNeeded;

        frmMODFLOW.LoadModflowForm(UnreadData,
          FormDataAsString, VersionInString);
        frmMODFLOW.SetSubsidenceLayers;
        frmMODFLOW.SetSwtLayers;
      finally
        UnreadData.Free;
      end; // try 1
      frmMODFLOW.MFLayerStructure.Cancel;
      frmMODFLOW.MFLayerStructure.SetStatus(sNormal);
    finally
      Screen.Cursor := crDefault;
      frmMODFLOW.Cancelling := False;
      result := False;
    end;
  end; // if frmMODFLOW.ShowModal = mrOK else
end;

function IniFile(Handle: HWnd): string;
begin
  result := DllAppDirectory(Handle, GetDLLName);
  if not DirectoryExists(result) then
  begin
    CreateDirectoryAndParents(result);
  end;
  result := result + '\modflow.ini.'
//  GetDllDirectory(GetDLLName, result);
end;

function GProjectNew(Handle: ANE_PTR; rPIEHandle: ANE_PTR_PTR;
  rLayerTemplate: ANE_STR_PTR): ANE_BOOL; cdecl;
var
  VersionInString: string;
  Path: string;
  ValFile: TStringList;
  Dummy: string;
begin
  CheckVersion(Handle);
{$IFDEF Debug}
  WriteDebugOutput('Enter GProjectNew');
{$ENDIF}
  if EditWindowOpen then
  begin
    MessageDlg('You can not create a new MODFLOW model while exporting a ' +
      ' project or if an edit box is open.', mtError, [mbOK], 0);
    Result := False
  end
  else // if EditWindowOpen
  begin
    EditWindowOpen := True;
{$IFDEF Debug}
    WriteDebugOutput('EditWindowOpen := True');
{$ENDIF}
    try // try 1
      frmMODFLOW := nil;
{$IFDEF Debug}
      WriteDebugOutput('frmMODFLOW := nil');
      WriteDebugOutput('no move');
{$ENDIF}
      Application.CreateForm(ModflowTypes.GetModflowFormType, frmMODFLOW);
{$IFDEF Debug}
      WriteDebugOutput('Application.CreateForm(ModflowTypes...');
{$ENDIF}
      frmMODFLOW.CurrentModelHandle := Handle;
      frmMODFLOW.NewModel := True;
{$IFDEF Debug}
      WriteDebugOutput('frmMODFLOW.CurrentModelHandle := Handle');
{$ENDIF}
      try // try 3
        frmMODFLOW.MFLayerStructure :=
          ModflowTypes.GetModflowLayerStructureType.Create;
{$IFDEF Debug}
        WriteDebugOutput('frmMODFLOW.MFLayerStructure :=');
{$ENDIF}
        frmMODFLOW.AssociateUnits;
        frmMODFLOW.AssociateTimes;
        frmMODFLOW.rgFlowPackage.ItemIndex := 1;
        frmMODFLOW.rbMODFLOW2000.Checked := True;
        frmMODFLOW.cbMT3D_OneDArrays.Checked := False;
{$IFDEF Debug}
        WriteDebugOutput('frmMODFLOW.rbMODFLOW2000.Checked := True');
{$ENDIF}
//        if not GetDllDirectory(DLLName, Path) then
//        begin
//          Beep;
//          ShowMessage('Unable to find ' + DLLName);
//        end
//        else
//        begin
          Path := DllAppDirectory(frmMODFLOW.handle, DLLName);

          Path := Path + '\modflow.val';
{$IFDEF Debug}
          WriteDebugOutput('Path := Path + ''\modflow.val');
{$ENDIF}
          if FileExists(Path) then
          begin
            ValFile := TStringList.Create;
{$IFDEF Debug}
            WriteDebugOutput('ValFile := TStringList.Create');
{$ENDIF}
            try // try 4
              ValFile.LoadFromFile(Path);
{$IFDEF Debug}
              WriteDebugOutput('ValFile.LoadFromFile(Path)');
{$ENDIF}
              if Pos('@NPER@', ValFile.Text) = 0 then
              begin
                frmMODFLOW.ReadValFile(VersionInString, Path);
{$IFDEF Debug}
                WriteDebugOutput(
                  'frmMODFLOW.ReadValFile(VersionInString, Path)');
{$ENDIF}
              end
              else
              begin
                BEEP;
                MessageDlg('A val file from a previous version of the '
                  + 'MODFLOW PIE has been detected. It will be ignored. '
                  + 'You should either replace it with a new version '
                  + 'or delete it. It is now much easier to create new '
                  + 'val files. To find out more about val files, go to '
                  + 'The "Advanced Options" tab of the "Edit Project Info" '
                  + 'dialog box and read the online help for the "Save Val '
                  + 'File" button.', mtWarning, [mbOK], 0);
              end;
            finally // try 4
{$IFDEF Debug}
              WriteDebugOutput('ValFile.Free');
{$ENDIF}
              ValFile.Free;
            end;
          end;
{$IFDEF Debug}
          WriteDebugOutput('Path := IniFile');
{$ENDIF}
          Path := IniFile(frmMODFLOW.Handle);
          if FileExists(Path) then
          begin
{$IFDEF Debug}
            WriteDebugOutput('frmMODFLOW.ReadValFile(VersionInString, Path)');
{$ENDIF}
            frmMODFLOW.ReadValFile(VersionInString, Path);
          end;
//        end;
        comboMPATHOutModeHelpContext
          := frmMODFLOW.comboMPATHOutMode.HelpContext;
        comboSensFormatHelpContext
          := frmMODFLOW.comboSensFormat.HelpContext;
        btnModflowImportHelpContext
          := frmMODFLOW.btnModflowImport.HelpContext;
        frmMODFLOW.Loading := False;
{$IFDEF Debug}
        WriteDebugOutput('frmMODFLOW.Loading := False');
{$ENDIF}
        if frmMODFLOW.ShowModal = mrOK then
        begin
          frmMODFLOW.NewModel := False;

          LayerStructureString :=
            frmMODFLOW.MFLayerStructure.WriteLayers(Handle);
          if AnANE_STR <> nil then
          begin
            FreeMem(AnANE_STR);
          end;
          GetMem(AnANE_STR, Length(LayerStructureString) + 1);
          StrPCopy(AnANE_STR, LayerStructureString);

          rLayerTemplate^ := AnANE_STR;
          frmMODFLOW.MFLayerStructure.SetStatus(sNormal);
          result := true;
          frmMODFLOW.Hide;
          ANE_ProcessEvents(Handle);
          if not CheckArgusVersion(Handle, 4, 2, 0, 'e', Dummy) then
          begin
            Beep;
            ShowMessage('By convention, MODFLOW Grids are numbered from the '
              + 'top down rather than from the bottom up. To set this '
              + 'option, activate the MODFLOW FD Grid layer and select '
              + '"Edit|Grid Direction|Negative Y". This option is set '
              + 'automatically in Argus ONE 4.2.0e and later.');
          end;
          rPIEHandle^ := frmMODFLOW;
          frmMODFLOW.CurrentModelHandle := nil;
          frmMODFLOW := nil;
        end
        else
        begin
          frmMODFLOW.Free;
          frmMODFLOW := nil;
          result := false;
        end;
      except on E: Exception do // try a3
        begin
          frmMODFLOW.Free;
          result := False;
          Beep;
          MessageDlg(E.Message, mtError, [mbOK], 0);
        end;
      end;
    finally // try 1
      EditWindowOpen := False;
    end; // try 3
  end; // if EditWindowOpen else
end; { GSimpleExportTemplate }

function GEditForm(aneHandle: ANE_PTR;
  PIEHandle: ANE_PTR): ANE_BOOL; cdecl;
begin
  if EditWindowOpen then
  begin
    Result := False
  end
  else // if EditWindowOpen
  begin
    EditWindowOpen := True;
    try // try 1
      try // try 2

        frmMODFLOW := PIEHandle;
        frmMODFLOW.CurrentModelHandle := aneHandle;
        frmMODFLOW.NewModel := False;
        frmMODFLOW.SetCBoundNeeded;
        result := EditForm;
      except on E: Exception do // try 2
        begin
          result := False;
          Beep;
          MessageDlg(E.Message, MtError, [mbOK], 0);
        end;
      end // try 2
    finally
      EditWindowOpen := False;
    end; // try 1
  end; // if EditWindowOpen else
end; { GEditForm }

procedure GClearForm(aneHandle: ANE_PTR; PIEHandle: ANE_PTR); cdecl;
begin
  try
    frmMODFLOW := PIEHandle;
    if (frmMODFLOW <> nil) then
    begin
      frmMODFLOW.CurrentModelHandle := aneHandle;
    end;
    try
      frmMODFLOW.Free;
    finally
      frmMODFLOW := nil;
      if AnANE_STR <> nil then
      begin
        FreeMem(AnANE_STR);
        AnANE_STR := nil;
      end;
    end;
  except on E: Exception do
    begin
      MessageDlg(E.Message, mtError, [mbOK], 0);
    end
  end;
end; { GClearForm }

procedure GSaveForm(aneHandle: ANE_PTR; PIEHandle: ANE_PTR;
  rSaveInfo: ANE_STR_PTR); cdecl;
var
  ModelPaths: TStringList;
  Warning: string;
begin
  if EditWindowOpen then
  begin
    MessageDlg('You can not save a file while exporting a ' +
      ' project or if an edit box is open. Save this file again after'
      + ' correcting these problems.', mtError, [mbOK], 0);
  end
  else // if EditWindowOpen
  begin
    EditWindowOpen := True;
    try // try 1
      frmMODFLOW := PIEHandle;
      if frmMODFLOW <> nil then
      begin
        frmMODFLOW.CurrentModelHandle := aneHandle;
        // read the data on Form to a string
        frmMODFLOW.NeedToSaveUnitNumbers := True;
        frmMODFLOW.memoDescription.HandleNeeded;
        FormDataAsString := frmMODFLOW.FormToString(frmMODFLOW.lblVersion,
          frmMODFLOW.IgnoreList, rsDeveloper);
        frmMODFLOW.NeedToSaveUnitNumbers := False;
        if AnANE_STR <> nil then
        begin
          FreeMem(AnANE_STR);
        end;
        GetMem(AnANE_STR, Length(FormDataAsString) + 1);
        StrPCopy(AnANE_STR, FormDataAsString);
        try // try 2
          ModelPaths := TStringList.Create;
          try // try3
            frmMODFLOW.ModelPaths(ModelPaths, frmMODFLOW.lblVersion,
              rsDeveloper);
            try
              ModelPaths.SaveToFile(IniFile(frmMODFLOW.Handle));
            except
            end;
          finally
            ModelPaths.Free;
          end; // try 3
        except on E: Exception do
          begin
            Warning := 'The following error occured while saving model. "'
              + E.Message + '" Contact PIE '
              + 'Developer';
            if rsDeveloper <> '' then
            begin
              Warning := Warning + ' (' + rsDeveloper + ')';
            end;
            Warning := Warning + ' for assistance.';
            Beep;
            MessageDlg(Warning, mtError, [mbOK], 0);
          end;
        end; // try 2
      end;
    finally
      EditWindowOpen := False;
    end; // try 1
  end; // if EditWindowOpen else
  rSaveInfo^ := AnANE_STR;
end;

procedure FixGHBExpressions(aneHandle: ANE_PTR);
var
  LayerHandle: ANE_PTR;
  ParamIndex: ANE_INT32;
  UnitIndex: integer;
  GridLayer: T_ANE_GridLayer;
  AParameterList: T_ANE_IndexedParameterList;
  AParam: T_ANE_Param;
  Expression: string;
  LayerName: string;
begin
  LayerName := ModflowTypes.GetGridLayerType.ANE_LayerName;
  LayerHandle := GetLayerHandle(aneHandle, LayerName);
  if LayerHandle <> nil then
  begin
    UnitIndex := 0;
    repeat
      begin
        Inc(UnitIndex);

        // reset Grid Drain parameter expression.
        ParamIndex := UGetParameterIndex(aneHandle, LayerHandle,
          ModflowTypes.GetMFGridGHBParamType.ANE_ParamName +
          IntToStr(UnitIndex));

        if ParamIndex > -1 then
        begin
          GridLayer := frmModflow.MFLayerStructure.UnIndexedLayers.
            GetLayerByName(ModflowTypes.GetGridLayerType.ANE_LayerName)
            as T_ANE_GridLayer;

          AParameterList := GridLayer.IndexedParamList1.
            GetNonDeletedIndParameterListByIndex(UnitIndex - 1);

          AParam := AParameterList.GetParameterByName(ModflowTypes.
            GetMFGridGHBParamType.ANE_ParamName);

          Expression := AParam.Value;

          USetParameterExpression(aneHandle, layerHandle, ParamIndex,
            Expression);
        end;
      end;
    until ParamIndex = -1;
  end;
end;

procedure FixGridGHB_Expressions(aneHandle: ANE_PTR);
var
  LayerHandle: ANE_PTR;
  ParamIndex: ANE_INT32;
  UnitIndex: integer;
  GridLayer: T_ANE_GridLayer;
  AParameterList: T_ANE_IndexedParameterList;
  AParam: T_ANE_Param;
  Expression: string;
  LayerName: string;
begin
  LayerName := ModflowTypes.GetGridLayerType.ANE_LayerName;
  LayerHandle := GetLayerHandle(aneHandle, LayerName);
  if LayerHandle <> nil then
  begin
    UnitIndex := 0;
    repeat
      begin
        Inc(UnitIndex);

        // reset Grid Drain parameter expression.
        ParamIndex := UGetParameterIndex(aneHandle, LayerHandle,
          ModflowTypes.GetMFGridGHBParamType.ANE_ParamName +
          IntToStr(UnitIndex));

        if ParamIndex > -1 then
        begin
          GridLayer := frmModflow.MFLayerStructure.UnIndexedLayers.
            GetLayerByName(ModflowTypes.GetGridLayerType.ANE_LayerName)
            as T_ANE_GridLayer;

          AParameterList := GridLayer.IndexedParamList1.
            GetNonDeletedIndParameterListByIndex(UnitIndex - 1);

          AParam := AParameterList.GetParameterByName(ModflowTypes.
            GetMFGridGHBParamType.ANE_ParamName);

          Expression := AParam.Value;

          USetParameterExpression(aneHandle, layerHandle, ParamIndex,
            Expression);
        end;
      end;
    until ParamIndex = -1;
  end;
end;

procedure FixRiverAndDrainExpressions(aneHandle: ANE_PTR);
var
  LayerHandle: ANE_PTR;
  ParamIndex: ANE_INT32;
  UnitIndex: integer;
  GridLayer: T_ANE_GridLayer;
  AParameterList: T_ANE_IndexedParameterList;
  AParam: T_ANE_Param;
  Expression: string;
  LayerName: string;
begin
  LayerName := ModflowTypes.GetGridLayerType.ANE_LayerName;
  LayerHandle := GetLayerHandle(aneHandle, LayerName);
  if LayerHandle <> nil then
  begin
    UnitIndex := 0;
    repeat
      begin
        Inc(UnitIndex);

        // reset Grid Drain parameter expression.
        ParamIndex := UGetParameterIndex(aneHandle, LayerHandle,
          ModflowTypes.GetMFGridDrainParamType.ANE_ParamName +
          IntToStr(UnitIndex));

        if ParamIndex > -1 then
        begin
          GridLayer := frmModflow.MFLayerStructure.UnIndexedLayers.
            GetLayerByName(ModflowTypes.GetGridLayerType.ANE_LayerName)
            as T_ANE_GridLayer;

          AParameterList := GridLayer.IndexedParamList1.
            GetNonDeletedIndParameterListByIndex(UnitIndex - 1);

          AParam := AParameterList.GetParameterByName(ModflowTypes.
            GetMFGridDrainParamType.ANE_ParamName);

          Expression := AParam.Value;

          USetParameterExpression(aneHandle, layerHandle, ParamIndex,
            Expression);
        end;
      end;
    until ParamIndex = -1;
  end;

  LayerName := ModflowTypes.GetGridLayerType.ANE_LayerName;
  LayerHandle := GetLayerHandle(aneHandle, LayerName);
  if LayerHandle <> nil then
  begin
    UnitIndex := 0;
    repeat
      begin
        Inc(UnitIndex);

        // reset Grid River parameter expression.
        ParamIndex := UGetParameterIndex(aneHandle, LayerHandle,
          ModflowTypes.GetMFGridRiverParamType.ANE_ParamName +
          IntToStr(UnitIndex));
        if ParamIndex > -1 then
        begin
          GridLayer := frmModflow.MFLayerStructure.UnIndexedLayers.
            GetLayerByName(ModflowTypes.GetGridLayerType.ANE_LayerName)
            as T_ANE_GridLayer;

          AParameterList := GridLayer.IndexedParamList1.
            GetNonDeletedIndParameterListByIndex(UnitIndex - 1);

          AParam := AParameterList.GetParameterByName(ModflowTypes.
            GetMFGridRiverParamType.ANE_ParamName);

          Expression := AParam.Value;

          USetParameterExpression(aneHandle, layerHandle, ParamIndex,
            Expression);
        end;
      end;
    until ParamIndex = -1;
  end;
end;

procedure FixMonitorConcentrationParameters(aneHandle: ANE_PTR);
var
  LayerName: string;
  LayerHandle: ANE_PTR;
  LayOptions: TLayerOptions;
  ParamName: string;
  ParamIndex: ANE_INT32;
  OldParamName: string;
  Param: TParameterOptions;
  NewName: String;
  procedure ChangeParamName;
  begin
    LayerHandle := GetLayerHandle(aneHandle, LayerName);
    if LayerHandle <> nil then
    begin
      LayOptions := TLayerOptions.Create(LayerHandle);
      try
        ParamName := NewName;
        ParamIndex := LayOptions.GetParameterIndex(aneHandle,ParamName);
        if ParamIndex < 0 then
        begin
          OldParamName := 'Monitor Concetration';
          ParamIndex := LayOptions.GetParameterIndex(aneHandle,OldParamName);
          if ParamIndex >= 0 then
          begin
            Param := TParameterOptions.Create(LayerHandle, ParamIndex);
            try
              Param.Name[aneHandle] := ParamName;
            finally
              Param.Free;
            end;
          end;
        end;
      finally
        LayOptions.Free(aneHandle);
      end;
    end;
  end;
begin
  NewName := ModflowTypes.
    GetMF_MNW2_MonitorConcentrationParamType.ANE_ParamName;
  LayerName := ModflowTypes.GetMFMNW2_VerticalWellLayerType.ANE_LayerName;
  ChangeParamName;
  LayerName := ModflowTypes.GetMFMNW2_GeneralWellLayerType.ANE_LayerName;
  ChangeParamName;
end;

procedure FixSwtParameters(aneHandle: ANE_PTR);
var
  Index: Integer;
  LayerName: string;
  LayerHandle: ANE_PTR;
  LayOptions: TLayerOptions;
  ParamName: string;
  ParamIndex: ANE_INT32;
  OldParamName: string;
  Param: TParameterOptions;
  ParamNames: TStringList;
  PIndex: Integer;
begin
  ParamNames := TStringList.Create;
  try
    ParamNames.Add(ModflowTypes.
      GetMFInitialEffectiveStressOffsetParamType.ANE_ParamName);
    ParamNames.Add(ModflowTypes.
      GetMFInitialPreconsolidationStressParamType.ANE_ParamName);
    for Index := 1 to frmModflow.UnitCount do
    begin
      LayerName := ModflowTypes.GetMFSwtUnitLayerType.ANE_LayerName
        + IntToStr(Index);
      LayerHandle := GetLayerHandle(aneHandle, LayerName);
      if LayerHandle <> nil then
      begin
        LayOptions := TLayerOptions.Create(LayerHandle);
        try
          for PIndex := 0 to ParamNames.Count - 1 do
          begin
            ParamName := ParamNames[PIndex];
            ParamIndex := LayOptions.GetParameterIndex(aneHandle,ParamName);
            if ParamIndex < 0 then
            begin
              OldParamName := ParamName + '1';
              ParamIndex := LayOptions.GetParameterIndex(aneHandle,OldParamName);
              if ParamIndex >= 0 then
              begin
                Param := TParameterOptions.Create(LayerHandle, ParamIndex);
                try
                  Param.Name[aneHandle] := ParamName;
                finally
                  Param.Free;
                end;
              end;
            end;
          end;
        finally
          LayOptions.Free(aneHandle);
        end;
      end;
    end;
  finally
    ParamNames.Free;
  end;

end;

procedure FixOldMT3D(aneHandle: ANE_PTR);
var
  LayerHandle: ANE_PTR;
  ParamIndex: ANE_INT32;
  UnitIndex: integer;
  GridLayer: T_ANE_GridLayer;
  AParameterList: T_ANE_IndexedParameterList;
  AParam: T_ANE_Param;
  Expression: string;
  LayerName: string;
  ParameterRoots, OldRoots, NewRoots, OldLayers: TStringList;
  NewLayers, ConcentrationLayers: TStringList;
  Index: integer;
  ParameterName: string;
  OldName, NewName: string;
  OtherLayerHandle: ANE_PTR;
  NewConcentration: string;
  ConcentrationLayerName: string;
  TimeIndex: integer;
const
  OldConcentration = 'MT3D Concentration';
begin
  NewConcentration := ModflowTypes.GetMFConcentrationParamType.ANE_ParamName;
  ParameterRoots := TStringList.Create;
  OldRoots := TStringList.Create;
  NewRoots := TStringList.Create;
  OldLayers := TStringList.Create;
  NewLayers := TStringList.Create;
  ConcentrationLayers := TStringList.Create;
  try
    ConcentrationLayers.Add(ModflowTypes.GetMFWellLayerType.ANE_LayerName);
    ConcentrationLayers.Add(ModflowTypes.
      GetMFPointRiverLayerType.ANE_LayerName);
    ConcentrationLayers.Add(ModflowTypes.GetMFLineRiverLayerType.ANE_LayerName);
    ConcentrationLayers.Add(ModflowTypes.GetMFAreaRiverLayerType.ANE_LayerName);
    ConcentrationLayers.Add(ModflowTypes.GetPointGHBLayerType.ANE_LayerName);
    ConcentrationLayers.Add(ModflowTypes.GetLineGHBLayerType.ANE_LayerName);
    ConcentrationLayers.Add(ModflowTypes.GetAreaGHBLayerType.ANE_LayerName);

    OldLayers.Add('MT3D Porosity Unit');
    NewLayers.Add(ModflowTypes.GetMOCPorosityLayerType.ANE_LayerName);

    OldRoots.Add('MT3D Porosity Unit');
    NewRoots.Add(ModflowTypes.GetMFGridMOCPorosityParamType.ANE_ParamName);

    ParameterRoots.Add(ModflowTypes.
      GetMFGridMOCPorosityParamType.ANE_ParamName);
    ParameterRoots.Add(ModflowTypes.
      GetGridMT3DICBUNDParamClassType.ANE_ParamName);
    ParameterRoots.Add(ModflowTypes.
      GetGridMT3DActiveCellParamClassType.ANE_ParamName);
    ParameterRoots.Add(ModflowTypes.
      GetGridMT3DInitConcCellParamClassType.ANE_ParamName);
    ParameterRoots.Add(ModflowTypes.
      GetGridMT3DObsLocCellParamClassType.ANE_ParamName);
    ParameterRoots.Add(ModflowTypes.
      GetGridMT3DLongDispCellParamClassType.ANE_ParamName);
    ParameterRoots.Add(ModflowTypes.
      GetGridMT3DTimeVaryConcCellParamClassType.ANE_ParamName);

    LayerName := ModflowTypes.GetGridLayerType.ANE_LayerName;
    LayerHandle := GetLayerHandle(aneHandle, LayerName);
    if LayerHandle <> nil then
    begin
      GridLayer := frmModflow.MFLayerStructure.UnIndexedLayers.GetLayerByName
        (ModflowTypes.GetGridLayerType.ANE_LayerName) as T_ANE_GridLayer;

      UnitIndex := 0;
      repeat // ParamIndex = -1 do
        begin
          Inc(UnitIndex);

          AParameterList := GridLayer.IndexedParamList1.
            GetNonDeletedIndParameterListByIndex(UnitIndex - 1);
          if AParameterList = nil then
            break;

          for Index := 0 to ConcentrationLayers.Count - 1 do
          begin
            ConcentrationLayerName := ConcentrationLayers[Index] +
              IntToStr(UnitIndex);
            OtherLayerHandle := GetLayerHandle(aneHandle,
              ConcentrationLayerName);
            if OtherLayerHandle <> nil then
            begin
              TimeIndex := 0;
              repeat
                Inc(TimeIndex);
                OldName := OldConcentration + IntToStr(TimeIndex);
                ParamIndex := UGetParameterIndex(aneHandle, OtherLayerHandle,
                  OldName);
                if ParamIndex > -1 then
                begin
                  NewName := NewConcentration + IntToStr(TimeIndex);
                  URenameParameter(aneHandle, OtherLayerHandle, ParamIndex,
                    NewName);
                end;
              until ParamIndex < 0;
            end;
          end;

          for Index := 0 to OldLayers.Count - 1 do
          begin
            OldName := OldLayers[Index] + IntToStr(UnitIndex);
            NewName := NewLayers[Index] + IntToStr(UnitIndex);
            OtherLayerHandle := GetLayerHandle(aneHandle, OldName);
            if OtherLayerHandle <> nil then
            begin
              if ULayerRename(aneHandle, OtherLayerHandle, NewName) then
              begin
                ParamIndex := UGetParameterIndex(aneHandle, OtherLayerHandle,
                  OldName);
                if ParamIndex > -1 then
                begin
                  URenameParameter(aneHandle, OtherLayerHandle, ParamIndex,
                    NewName);
                end;
              end;
            end;
          end;

          for Index := 0 to OldRoots.Count - 1 do
          begin
            OldName := OldRoots[Index] + IntToStr(UnitIndex);
            NewName := NewRoots[Index] + IntToStr(UnitIndex);
            ParamIndex := UGetParameterIndex(aneHandle, LayerHandle, OldName);
            if ParamIndex > -1 then
            begin
              URenameParameter(aneHandle, LayerHandle, ParamIndex, NewName);
            end;
          end;

          for Index := 0 to ParameterRoots.Count - 1 do
          begin
            ParameterName := ParameterRoots[Index] + IntToStr(UnitIndex);

            // reset Grid parameter expression.
            ParamIndex := UGetParameterIndex(aneHandle, LayerHandle,
              ParameterName);

            if ParamIndex > -1 then
            begin
              AParam :=
                AParameterList.GetParameterByName(ParameterRoots[Index]);

              if AParam <> nil then
              begin
                Expression := AParam.Value;

                USetParameterExpression(aneHandle, layerHandle, ParamIndex,
                  Expression);
              end;
            end;
          end;
        end;
      until AParameterList = nil;
    end;
  finally
    ParameterRoots.Free;
    OldRoots.Free;
    NewRoots.Free;
    OldLayers.Free;
    NewLayers.Free;
    ConcentrationLayers.Free;
  end;
end;

procedure RemoveBadLayers(aneHandle: ANE_PTR);
var
  UnitIndex: integer;
  LayerRoot: string;
  LayerName: string;
  LayerHandle: ANE_PTR;
  GridLayerHandle: ANE_PTR;
  ParameterRoot: string;
  ParameterName: string;
  ParamIndex: integer;
begin
  if frmModflow.cbMOC3D.Checked and (frmModflow.rgMOC3DSolver.ItemIndex = 2)
    then
  begin
    LayerName := ModflowTypes.GetGridLayerType.ANE_LayerName;
    GridLayerHandle := GetLayerHandle(aneHandle, LayerName);

    UnitIndex := 1;
    ParameterRoot :=
      ModflowTypes.GetMFGridMOCParticleRegenParamType.ANE_ParamName;
    ParameterName := ParameterRoot + '1';
    ParamIndex := ANE_LayerGetParameterByName(aneHandle, GridLayerHandle,
      PChar(ParameterName));
    while ParamIndex >= 0 do
    begin
      ANE_LayerRemoveParameter(aneHandle, GridLayerHandle, ParamIndex, True);
      Inc(UnitIndex);
      ParameterName := ParameterRoot + IntToStr(UnitIndex);
      ParamIndex := ANE_LayerGetParameterByName(aneHandle, GridLayerHandle,
        PChar(ParameterName));
    end;
    ANE_ProcessEvents(aneHandle);

    UnitIndex := 1;
    LayerRoot := ModflowTypes.GetMOCParticleRegenLayerType.ANE_LayerName;
    LayerName := LayerRoot + '1';
    LayerHandle := GetLayerHandle(aneHandle, PChar(LayerName));
    while LayerHandle <> nil do
    begin
      ANE_LayerRemove(aneHandle, LayerHandle, True);
      Inc(UnitIndex);
      LayerName := LayerRoot + IntToStr(UnitIndex);
      LayerHandle := GetLayerHandle(aneHandle, PChar(LayerName));
    end;
  end;
end;

procedure FixMT3DMSExpressions(aneHandle: ANE_PTR);
var
  LayerHandle: ANE_PTR;
  ParamIndex: ANE_INT32;
  UnitIndex: integer;
  GridLayer: T_ANE_GridLayer;
  AParameterList: T_ANE_IndexedParameterList;
  AParam: T_ANE_Param;
  Expression: string;
  LayerName: string;
  ParamRoots: TStringList;
  Root: string;
  RootIndex: integer;
begin
  LayerName := ModflowTypes.GetGridLayerType.ANE_LayerName;
  LayerHandle := GetLayerHandle(aneHandle, LayerName);
  if LayerHandle <> nil then
  begin
    ParamRoots := TStringList.Create;
    try
