object frmRun: TfrmRun
  Left = 276
  Top = 11
  HelpContext = 11040
  BorderIcons = [biSystemMenu, biHelp]
  Caption = 'Run model'
  ClientHeight = 713
  ClientWidth = 772
  Color = clBtnFace
  Constraints.MinHeight = 384
  Constraints.MinWidth = 472
  Font.Charset = ANSI_CHARSET
  Font.Color = clWindowText
  Font.Height = -13
  Font.Name = 'Times New Roman'
  Font.Style = []
  OldCreateOrder = True
  Position = poScreenCenter
  Scaled = False
  OnCreate = FormCreate
  PixelsPerInch = 96
  TextHeight = 15
  object sbModelStatus: TStatusBar
    Left = 0
    Top = 694
    Width = 772
    Height = 19
    Panels = <
      item
        Style = psOwnerDraw
        Width = 50
      end>
    OnDrawPanel = sbModelStatusDrawPanel
  end
  object pcRun: TPageControl
    Left = 0
    Top = 0
    Width = 772
    Height = 657
    ActivePage = tabModelChoice
    Align = alClient
    TabOrder = 0
    OnChange = pcRunChange
    object tabModelChoice: TTabSheet
      Caption = 'Model Options'
      object lblWarning1: TLabel
        Left = 5
        Top = 520
        Width = 227
        Height = 45
        Caption = 
          'Warning: If the MODFLOW FD Grid layer has been altered, all MODF' +
          'LOW packages should be re-exported'
        Font.Charset = ANSI_CHARSET
        Font.Color = clWindowText
        Font.Height = -12
        Font.Name = 'Times New Roman'
        Font.Style = [fsBold]
        ParentFont = False
        Visible = False
        WordWrap = True
      end
      object lblRootname: TLabel
        Left = 8
        Top = 4
        Width = 230
        Height = 15
        Caption = 'Root name for MODFLOW simulation files:'
      end
      object lblDiscretization: TLabel
        Left = 312
        Top = 612
        Width = 249
        Height = 15
        Caption = 'Name of Modflow-2000 style discretization file:'
      end
      object lblMT3DWarning2: TLabel
        Left = 4
        Top = 576
        Width = 260
        Height = 30
        Caption = 
          'Warning: If the MODFLOW model has been changed, it must be re-ru' +
          'n before running MT3D.'
        Font.Charset = ANSI_CHARSET
        Font.Color = clWindowText
        Font.Height = -12
        Font.Name = 'Times New Roman'
        Font.Style = [fsBold]
        ParentFont = False
        Visible = False
        WordWrap = True
      end
      object gboxRunOption: TGroupBox
        Left = 4
        Top = 24
        Width = 293
        Height = 433
        HelpContext = 11050
        Caption = 'Run options'
        TabOrder = 1
        object lblMODFLOWCreate: TLabel
          Left = 26
          Top = 160
          Width = 80
          Height = 15
          Caption = 'input files only'
        end
        object rbRun: TRadioButton
          Left = 8
          Top = 80
          Width = 281
          Height = 17
          HelpContext = 11050
          Caption = '&Create input files and run MODFLOW or MOC3D'
          Checked = True
          TabOrder = 1
          TabStop = True
          OnClick = ModelButtonClick
        end
        object cbUseSolute: TCheckBox
          Left = 24
          Top = 96
          Width = 257
          Height = 17
          HelpContext = 11050
          Caption = '&Include MOC3D to simulate solute transport'
          Checked = True
          State = cbChecked
          TabOrder = 2
          OnClick = ModelButtonClick
        end
        object rbCreate: TRadioButton
          Left = 8
          Top = 144
          Width = 273
          Height = 17
          HelpContext = 11050
          Caption = 'Create MODFLOW and/or MOC3D'
          TabOrder = 5
          OnClick = ModelButtonClick
        end
        object rbRunZonebudget: TRadioButton
          Left = 8
          Top = 224
          Width = 249
          Height = 17
          HelpContext = 11050
          Caption = 'Create input files and run ZONEBUDGET'
          TabOrder = 8
          OnClick = ModelButtonClick
        end
        object rbCreateZonebudget: TRadioButton
          Left = 8
          Top = 240
          Width = 241
          Height = 17
          HelpContext = 11050
          Caption = 'Create ZONEBUDGET input files only'
          TabOrder = 9
          OnClick = ModelButtonClick
        end
        object rbMPATHRun: TRadioButton
          Left = 8
          Top = 184
          Width = 225
          Height = 17
          HelpContext = 11050
          Caption = 'Create input files and run MODPATH'
          TabOrder = 6
          OnClick = ModelButtonClick
        end
        object rbMPATHCreate: TRadioButton
          Left = 8
          Top = 200
          Width = 201
          Height = 17
          HelpContext = 11050
          Caption = 'Create MODPATH input files only'
          TabOrder = 7
          OnClick = ModelButtonClick
        end
        object cbResan: TCheckBox
          Left = 24
          Top = 112
          Width = 145
          Height = 17
          Caption = 'Use Resan-2000'
          TabOrder = 3
          OnClick = adeModelPathChange
        end
        object rbYcint: TRadioButton
          Left = 8
          Top = 264
          Width = 201
          Height = 17
          HelpContext = 11050
          Caption = 'Run YCINT-2000'
          TabOrder = 10
          OnClick = ModelButtonClick
        end
        object rbBeale: TRadioButton
          Left = 8
          Top = 288
          Width = 201
          Height = 17
          HelpContext = 11050
          Caption = 'Run BEALE-2000'
          TabOrder = 11
          OnClick = ModelButtonClick
        end
        object rgModflowVersion: TRadioGroup
          Left = 8
          Top = 16
          Width = 281
          Height = 57
          Caption = 'Modflow Version'
          Columns = 2
          ItemIndex = 1
          Items.Strings = (
            'MODFLOW-96'
            'MODFLOW-2000'
            'MODFLOW-2005')
          TabOrder = 0
          OnClick = cbModflow2000Click
        end
        object rbRunMT3D: TRadioButton
          Left = 8
          Top = 312
          Width = 193
          Height = 17
          Caption = 'Create input files and run MT3D'
          Enabled = False
          TabOrder = 12
          OnClick = ModelButtonClick
        end
        object rbCreateMT3D: TRadioButton
          Left = 8
          Top = 328
          Width = 193
          Height = 17
          Caption = 'Create MT3D input files only'
          Enabled = False
          TabOrder = 13
          OnClick = ModelButtonClick
        end
        object cbUseMT3D: TCheckBox
          Left = 24
          Top = 128
          Width = 257
          Height = 17
          HelpContext = 11050
          Caption = 'Create MT3DMS Link file'
          Checked = True
          State = cbChecked
          TabOrder = 4
          OnClick = ModelButtonClick
        end
        object rbRunSeawat: TRadioButton
          Left = 8
          Top = 352
          Width = 257
          Height = 17
          Caption = 'Create input files and run SEAWAT-2000'
          Enabled = False
          TabOrder = 14
          OnClick = ModelButtonClick
        end
        object rbCreateSeaWat: TRadioButton
          Left = 8
          Top = 368
          Width = 257
          Height = 17
          Caption = 'Create SEAWAT-2000 input files only'
          Enabled = False
          TabOrder = 15
          OnClick = ModelButtonClick
        end
        object rbRunGWM: TRadioButton
          Left = 8
          Top = 392
          Width = 257
          Height = 17
          Caption = 'Create input files and run MODFLOW-GWM'
          Enabled = False
          TabOrder = 16
          OnClick = ModelButtonClick
        end
        object rbCreateGWM: TRadioButton
          Left = 8
          Top = 408
          Width = 257
          Height = 17
          Caption = 'Create MODFLOW-GWM input files only'
          Enabled = False
          TabOrder = 17
          OnClick = ModelButtonClick
        end
      end
      object cbCalibrate: TCheckBox
        Left = 4
        Top = 464
        Width = 285
        Height = 17
        HelpContext = 11110
        Caption = '&External calibration program running Argus ONE'
        TabOrder = 4
      end
      object cbShowWarnings: TCheckBox
        Left = 4
        Top = 480
        Width = 261
        Height = 17
        HelpContext = 11120
        Caption = '&Show error and warning messages'
        Checked = True
        State = cbChecked
        TabOrder = 5
      end
      object adeFileName: TArgusDataEntry
        Left = 248
        Top = 0
        Width = 145
        Height = 22
        HelpContext = 1370
        ItemHeight = 15
        MaxLength = 8
        TabOrder = 0
        Text = 'userspec'
        OnEnter = adeFileNameEnter
        OnExit = adeFileNameExit
        Max = 1.000000000000000000
        ChangeDisabledColor = True
      end
      object cbProgressBar: TCheckBox
        Left = 4
        Top = 496
        Width = 149
        Height = 17
        Caption = 'Use Progress Bar PIE'
        Checked = True
        State = cbChecked
        TabOrder = 6
        Visible = False
        OnClick = cbProgressBarClick
      end
      object comboDiscretization: TComboBox
        Left = 565
        Top = 608
        Width = 193
        Height = 23
        ItemHeight = 15
        TabOrder = 8
        Text = 'discret.dat'
        Items.Strings = (
          'userspec.dis'
          'discret.dat')
      end
      object gboxMT3DPackages: TGroupBox
        Left = 316
        Top = 458
        Width = 445
        Height = 87
        Caption = 'MT3DMS input files'
        TabOrder = 3
        object lblMT3DBasic: TLabel
          Left = 8
          Top = 16
          Width = 85
          Height = 15
          Caption = 'Basic Transport'
        end
        object lblMT3DAdvec: TLabel
          Left = 8
          Top = 32
          Width = 57
          Height = 15
          Caption = 'Advection'
        end
        object lblMT3DDisp: TLabel
          Left = 8
          Top = 48
          Width = 58
          Height = 15
          Caption = 'Dispersion'
        end
        object lblSourceSink: TLabel
          Left = 232
          Top = 16
          Width = 126
          Height = 15
          Caption = 'Source and Sink Mixing'
        end
        object lblMT3DReact: TLabel
          Left = 232
          Top = 32
          Width = 98
          Height = 15
          Caption = 'Chemical Reaction'
        end
        object lblExportMT3DGCG: TLabel
          Left = 232
          Top = 48
          Width = 122
          Height = 30
          Caption = 'Generalized Conjugate Gradient Solver'
          WordWrap = True
        end
        object cbExportMT3DBTN: TCheckBox
          Left = 168
          Top = 16
          Width = 50
          Height = 17
          Caption = 'BTN'
          Checked = True
          State = cbChecked
          TabOrder = 0
        end
        object cbExportMT3DADV: TCheckBox
          Left = 168
          Top = 32
          Width = 50
          Height = 17
          Caption = 'ADV'
          Checked = True
          State = cbChecked
          TabOrder = 2
        end
        object cbExportMT3DDSP: TCheckBox
          Left = 168
          Top = 48
          Width = 50
          Height = 17
          Caption = 'DSP'
          Checked = True
          State = cbChecked
          TabOrder = 4
        end
        object cbExportMT3DSSM: TCheckBox
          Left = 384
          Top = 16
          Width = 50
          Height = 17
          Caption = 'SSM'
          Checked = True
          State = cbChecked
          TabOrder = 1
        end
        object cbExportMT3DRCT: TCheckBox
          Left = 384
          Top = 32
          Width = 50
          Height = 17
          Caption = 'RCT'
          Checked = True
          State = cbChecked
          TabOrder = 3
        end
        object cbExportMT3DGCG: TCheckBox
          Left = 384
          Top = 55
          Width = 50
          Height = 17
          Caption = 'GCG'
          Checked = True
          State = cbChecked
          TabOrder = 5
        end
      end
      object gbMODPATH: TGroupBox
        Left = 316
        Top = 546
        Width = 445
        Height = 57
        Caption = 'MODPATH input files'
        TabOrder = 7
        object lblMPA: TLabel
          Left = 8
          Top = 16
          Width = 78
          Height = 15
          Caption = 'Main Data File'
        end
        object lblPRT: TLabel
          Left = 8
          Top = 32
          Width = 61
          Height = 15
          Caption = 'Particle File'
        end
        object cbMPA: TCheckBox
          Left = 168
          Top = 16
          Width = 65
          Height = 17
          Caption = '(MPA)'
          Checked = True
          State = cbChecked
          TabOrder = 0
        end
        object cbPRT: TCheckBox
          Left = 168
          Top = 32
          Width = 65
          Height = 17
          Caption = '(PRT)'
          Checked = True
          State = cbChecked
          TabOrder = 1
        end
      end
      object pcCreateInputFor: TPageControl
        Left = 312
        Top = 32
        Width = 449
        Height = 417
        ActivePage = tabGroup3
        TabOrder = 2
        object tabGroup1: TTabSheet
          Caption = 'Group 1'
          object gboxMFOutputPackages: TGroupBox
            Left = 0
            Top = 0
            Width = 441
            Height = 387
            HelpContext = 11060
            Align = alClient
            Caption = 'Create input files for...'
            TabOrder = 0
            object lblBAS: TLabel
              Left = 8
              Top = 16
              Width = 76
              Height = 15
              Caption = 'Basic package'
            end
            object lblOC: TLabel
              Left = 8
              Top = 80
              Width = 82
              Height = 15
              Caption = 'Output control:'
            end
            object lblBCF: TLabel
              Left = 8
              Top = 112
              Width = 114
              Height = 15
              Caption = 'Block-Centered Flow:'
            end
            object lblRCH: TLabel
              Left = 8
              Top = 128
              Width = 53
              Height = 15
              Caption = 'Recharge:'
            end
            object lblRIV: TLabel
              Left = 8
              Top = 144
              Width = 37
              Height = 15
              Caption = 'Rivers:'
            end
            object lblWEL: TLabel
              Left = 8
              Top = 160
              Width = 33
              Height = 15
              Caption = 'Wells:'
            end
            object lblDRN: TLabel
              Left = 8
              Top = 176
              Width = 38
              Height = 15
              Caption = 'Drains:'
            end
            object lblGHB: TLabel
              Left = 8
              Top = 208
              Width = 139
              Height = 15
              Caption = 'General-Head Boundaries:'
            end
            object lblEVT: TLabel
              Left = 8
              Top = 256
              Width = 105
              Height = 15
              Caption = 'Evapotranspiration:'
            end
            object lblStream: TLabel
              Left = 8
              Top = 224
              Width = 45
              Height = 15
              Caption = 'Streams:'
            end
            object lblDis: TLabel
              Left = 8
              Top = 32
              Width = 76
              Height = 15
              Caption = 'Discretization '
            end
            object lblLPF: TLabel
              Left = 8
              Top = 96
              Width = 112
              Height = 15
              Caption = 'Layer-Property Flow:'
            end
            object lblMult: TLabel
              Left = 8
              Top = 48
              Width = 52
              Height = 15
              Caption = 'Multiplier'
            end
            object lblZONE: TLabel
              Left = 8
              Top = 64
              Width = 34
              Height = 15
              Caption = 'Zones'
            end
            object lblExpSfr: TLabel
              Left = 8
              Top = 240
              Width = 108
              Height = 15
              Caption = 'Streamflow Routing:'
            end
            object lblExpETS: TLabel
              Left = 8
              Top = 273
              Width = 160
              Height = 15
              Caption = 'Evapotranspiration Segments:'
            end
            object lblExpDRT: TLabel
              Left = 8
              Top = 192
              Width = 71
              Height = 15
              Caption = 'Drain Return:'
            end
            object lblExpHYD: TLabel
              Left = 8
              Top = 289
              Width = 59
              Height = 15
              Caption = 'HYDMOD:'
            end
            object lblExpCHD: TLabel
              Left = 8
              Top = 305
              Width = 145
              Height = 15
              Caption = 'Constant-Head Boundaries'
            end
            object lblExpHUF: TLabel
              Left = 8
              Top = 321
              Width = 136
              Height = 15
              Caption = 'Hydrogeologic-Unit Flow'
            end
            object lblExpModelViewer: TLabel
              Left = 8
              Top = 336
              Width = 150
              Height = 15
              Caption = 'Elevations for Model Viewer'
            end
            object cbBAS: TCheckBox
              Left = 168
              Top = 16
              Width = 60
              Height = 17
              HelpContext = 11060
              Caption = 'BAS'
              Checked = True
              State = cbChecked
              TabOrder = 0
            end
            object cbOC: TCheckBox
              Left = 168
              Top = 80
              Width = 60
              Height = 17
              HelpContext = 11060
              Caption = 'OC'
              Checked = True
              State = cbChecked
              TabOrder = 4
            end
            object cbBCF: TCheckBox
              Left = 168
              Top = 112
              Width = 49
              Height = 17
              HelpContext = 11060
              Caption = 'BCF'
              Checked = True
              State = cbChecked
              TabOrder = 6
            end
            object cbRCH: TCheckBox
              Left = 168
              Top = 128
              Width = 49
              Height = 17
              HelpContext = 11060
              Caption = 'RCH'
              Checked = True
              Enabled = False
              State = cbChecked
              TabOrder = 7
            end
            object cbRIV: TCheckBox
              Left = 168
              Top = 144
              Width = 60
              Height = 17
              HelpContext = 11060
              Caption = 'RIV'
              Checked = True
              Enabled = False
              State = cbChecked
              TabOrder = 8
            end
            object cbWEL: TCheckBox
              Left = 168
              Top = 160
              Width = 60
              Height = 17
              HelpContext = 11060
              Caption = 'WEL'
              Checked = True
              Enabled = False
              State = cbChecked
              TabOrder = 9
            end
            object cbDRN: TCheckBox
              Left = 168
              Top = 176
              Width = 60
              Height = 17
              HelpContext = 11060
              Caption = 'DRN'
              Checked = True
              Enabled = False
              State = cbChecked
              TabOrder = 10
            end
            object cbGHB: TCheckBox
              Left = 168
              Top = 208
              Width = 60
              Height = 17
              HelpContext = 11060
              Caption = 'GHB'
              Checked = True
              Enabled = False
              State = cbChecked
              TabOrder = 12
            end
            object cbEVT: TCheckBox
              Left = 168
              Top = 256
              Width = 60
              Height = 17
              HelpContext = 11060
              Caption = 'EVT'
              Checked = True
              Enabled = False
              State = cbChecked
              TabOrder = 15
            end
            object cbSTR: TCheckBox
              Left = 168
              Top = 224
              Width = 49
              Height = 17
              Caption = 'STR'
              Checked = True
              State = cbChecked
              TabOrder = 13
            end
            object cbDIS: TCheckBox
              Left = 168
              Top = 32
              Width = 50
              Height = 17
              Caption = 'DIS'
              Checked = True
              State = cbChecked
              TabOrder = 1
            end
            object cbLPF: TCheckBox
              Left = 168
              Top = 96
              Width = 49
              Height = 17
              HelpContext = 11060
              Caption = 'LPF'
              Checked = True
              State = cbChecked
              TabOrder = 5
            end
            object cbMULT: TCheckBox
              Left = 168
              Top = 48
              Width = 57
              Height = 17
              Caption = 'MULT'
              Checked = True
              State = cbChecked
              TabOrder = 2
            end
            object cbZONE: TCheckBox
              Left = 168
              Top = 64
              Width = 57
              Height = 17
              Caption = 'ZONE'
              Checked = True
              State = cbChecked
              TabOrder = 3
            end
            object cbSfr: TCheckBox
              Left = 168
              Top = 240
              Width = 49
              Height = 17
              Caption = 'SFR'
              Checked = True
              State = cbChecked
              TabOrder = 14
            end
            object cbExpETS: TCheckBox
              Left = 168
              Top = 272
              Width = 49
              Height = 17
              Caption = 'ETS'
              Checked = True
              State = cbChecked
              TabOrder = 16
            end
            object cbExpDRT: TCheckBox
              Left = 168
              Top = 192
              Width = 60
              Height = 17
              HelpContext = 11060
              Caption = 'DRT'
              Checked = True
              Enabled = False
              State = cbChecked
              TabOrder = 11
            end
            object cbExpHYD: TCheckBox
              Left = 168
              Top = 288
              Width = 49
              Height = 17
              Caption = 'HYD'
              Checked = True
              State = cbChecked
              TabOrder = 17
            end
            object cbExpCHD: TCheckBox
              Left = 168
              Top = 304
              Width = 57
              Height = 17
              Caption = 'CHD'
              Checked = True
              State = cbChecked
              TabOrder = 18
            end
            object cbExpHUF: TCheckBox
              Left = 168
              Top = 320
              Width = 57
              Height = 17
              Caption = 'HUF2'
              Checked = True
              State = cbChecked
              TabOrder = 19
            end
            object cbExpModelViewer: TCheckBox
              Left = 168
              Top = 336
              Width = 57
              Height = 17
              Caption = 'ELEV'
              Checked = True
              State = cbChecked
              TabOrder = 20
            end
          end
        end
        object tabGroup2: TTabSheet
          Caption = 'Group 2'
          ImageIndex = 1
          object gboxMFOutputPackages2: TGroupBox
            Left = 0
            Top = 0
            Width = 441
            Height = 387
            Align = alClient
            Caption = 'Create input files for...'
            TabOrder = 0
            object lblFHBExport: TLabel
              Left = 8
              Top = 16
              Width = 139
              Height = 15
              Caption = 'Flow and Head Boundary:'
            end
            object lblExpSub: TLabel
              Left = 8
              Top = 32
              Width = 62
              Height = 15
              Caption = 'Subsidence'
            end
            object lblExpGAG: TLabel
              Left = 8
              Top = 64
              Width = 27
              Height = 15
              Caption = 'Gage'
            end
            object lblExpIBS: TLabel
              Left = 8
              Top = 80
              Width = 93
              Height = 15
              Caption = 'Interbed-Storage:'
            end
            object lblExpLAK: TLabel
              Left = 8
              Top = 96
              Width = 34
              Height = 15
              Caption = 'Lakes:'
            end
            object lblExpRES: TLabel
              Left = 8
              Top = 112
              Width = 51
              Height = 15
              Caption = 'Reservoir'
            end
            object lblExpTLK: TLabel
              Left = 8
              Top = 128
              Width = 104
              Height = 15
              Caption = 'Transient Leakage: '
            end
            object lblHFT: TLabel
              Left = 8
              Top = 144
              Width = 129
              Height = 15
              Caption = 'Horizontal-Flow Barrier: '
            end
            object lblExpMNW: TLabel
              Left = 8
              Top = 160
              Width = 139
              Height = 15
              Caption = 'Multi-Node Well Package:'
            end
            object lblExpDAFLOW: TLabel
              Left = 8
              Top = 188
              Width = 55
              Height = 15
              Caption = 'DAFLOW'
            end
            object lblExpVdf: TLabel
              Left = 8
              Top = 206
              Width = 116
              Height = 15
              Caption = 'Variable Density Flow'
            end
            object lblMatrix: TLabel
              Left = 8
              Top = 222
              Width = 131
              Height = 15
              Caption = 'Matrix Solution Method:'
            end
            object lblRVOB: TLabel
              Left = 8
              Top = 238
              Width = 106
              Height = 15
              Caption = 'River Observations:'
            end
            object lblHOB: TLabel
              Left = 8
              Top = 254
              Width = 106
              Height = 15
              Caption = 'Head Observations:'
            end
            object lblDROB: TLabel
              Left = 8
              Top = 270
              Width = 107
              Height = 15
              Caption = 'Drain Observations:'
            end
            object lblDTOB: TLabel
              Left = 8
              Top = 286
              Width = 146
              Height = 15
              Caption = 'Drain Return Observations:'
            end
            object lblGBOB: TLabel
              Left = 8
              Top = 302
              Width = 103
              Height = 15
              Caption = 'GHB Observations:'
            end
            object lblSTOB: TLabel
              Left = 8
              Top = 318
              Width = 114
              Height = 15
              Caption = 'Stream Observations:'
            end
            object lblCHOB: TLabel
              Left = 8
              Top = 334
              Width = 114
              Height = 15
              Caption = 'Pres.-Head Flux Obs.:'
            end
            object lblADOB: TLabel
              Left = 8
              Top = 350
              Width = 88
              Height = 15
              Caption = 'Advection Obs.:'
            end
            object lblExpSwt: TLabel
              Left = 8
              Top = 48
              Width = 153
              Height = 15
              Caption = 'Subsidence for WT Aquifers'
            end
            object Label3: TLabel
              Left = 8
              Top = 175
              Width = 145
              Height = 15
              Caption = 'Multi-Node Well2 Package:'
            end
            object cbExpFHB: TCheckBox
              Left = 168
              Top = 16
              Width = 41
              Height = 17
              HelpContext = 11060
              Caption = 'FHB'
              Checked = True
              State = cbChecked
              TabOrder = 0
            end
            object cbExpSub: TCheckBox
              Left = 168
              Top = 32
              Width = 57
              Height = 17
              HelpContext = 11060
              Caption = 'SUB'
              Checked = True
              State = cbChecked
              TabOrder = 1
            end
            object cbExpGAG: TCheckBox
              Left = 168
              Top = 64
              Width = 49
              Height = 17
              Caption = 'GAG'
              Checked = True
              State = cbChecked
              TabOrder = 3
            end
            object cbADOB: TCheckBox
              Left = 168
              Top = 351
              Width = 53
              Height = 17
              HelpContext = 11060
              Caption = 'ADOB'
              Checked = True
              Enabled = False
              State = cbChecked
              TabOrder = 21
            end
            object cbCHOB: TCheckBox
              Left = 168
              Top = 336
              Width = 53
              Height = 17
              HelpContext = 11060