unit WriteWellUnit;

interface

uses Sysutils, Classes, contnrs, Forms, Grids, ANEPIE,
  WriteModflowDiscretization, OptionsUnit, CopyArrayUnit;

type
  TWellRecord = record
    Layer, Row, Column : integer;
    Q : double;
    IFACE : integer;
    Concentration : double;
    MT3DConcentrations : T1DDoubleArray;
    FluidDensity: double;
    ContourIndex: integer;
  end;

  TWell = Class;

  TWellList = Class(TObjectList)
    public
    function Add(AWell : TWellRecord) : integer; overload;
    function GetWellByLocation(Layer, Row, Column : integer) : TWell;
    procedure Sort;
    procedure WriteMT3DConcentrations(const Lines: TStrings);
  end;

  TWellParamValue = Class(TObject)
  private
    Value : double;
    StressPeriodsUsed: Array of boolean;
    InstanceNamesUsed: array of string;
    WellList : TWellList;
    Instances : TStringList;
  public
    Constructor Create(RowIndex : Integer);
    Destructor Destroy; override;
  end;

  TWellPkgWriter = class(TCustomBoundaryWriter)
  private
    ParameterNames : TStringList;
    WellTimes : TList;
    MXL : integer;
    ITMP, NP : integer;
    PointErrors, LineErrors, AreaErrors: integer;
    Procedure AddParameterNameCell(ParameterName : string;
      AWell : TWellRecord; Const Instance : integer);
    procedure EvaluateDataSets6and7(const CurrentModelHandle: ANE_PTR;
      Discretization : TDiscretizationWriter);
    procedure GetParamIndicies(out IsParamIndex, ParamNameIndex,
      TopIndex, BottomIndex, DensityIndex : ANE_INT16; out IsParamName, ParamName,
      TopName, BottomName, DensityName: string; const
      CurrentModelHandle: ANE_PTR; WellLayer : TLayerOptions);
    procedure AddParameterNames;
    procedure EvaluatePointLayer(const CurrentModelHandle: ANE_PTR;
      UnitIndex: integer; ProjectOptions: TProjectOptions;
      Discretization : TDiscretizationWriter);
    procedure EvaluateLineLayer(const CurrentModelHandle: ANE_PTR;
      UnitIndex: integer; ProjectOptions: TProjectOptions;
      Discretization: TDiscretizationWriter);
    procedure EvaluateAreaLayer(const CurrentModelHandle: ANE_PTR;
      UnitIndex: integer; ProjectOptions: TProjectOptions;
      Discretization: TDiscretizationWriter);
    procedure WriteDataSet1;
    procedure WriteDataSet2;
    procedure WriteDataSets3And4;
    procedure WriteDatasets5To7;
    procedure WriteDataSet5(StressPeriodIndex : integer);
    procedure WriteDataSet6(StressPeriodIndex : integer);
    procedure WriteDataSet7(StressPeriodIndex : integer);
    function GetBoundaryThickness(DivIndex, LayersPerUnit: integer; Top,
      UnitThickness, BoundaryTop, BoundaryBottom: double): double;
    function GetLayersAbove(UnitIndex : integer): Integer;
    procedure AddParameterNameCellToStringList(NameList: TStringList;
      ParameterName: string; AWell: TWellRecord; Const Instance : integer);
    procedure AddParameterNamesToStringList(NameList: TStringList);
    procedure AddParameterNameToStringList(NameList: TStringList;
      RowIndex: integer);
    procedure SortWells;
    function GetParameterInstanceCount(
      const ParameterName: string): integer;
    procedure MakeWellListsConsistent;
  public
    constructor Create;
    destructor Destroy; override;
    procedure WriteFile(
      const CurrentModelHandle: ANE_PTR; Root: string;
      Discretization : TDiscretizationWriter);
    function BoundaryUsed(Layer, Row, Column : integer) : boolean; override;
    procedure Evaluate(const CurrentModelHandle: ANE_PTR;
      Discretization: TDiscretizationWriter);
    procedure WriteMT3DConcentrations(const StressPeriod : integer;
      const Lines : TStrings);
    class procedure AssignUnitNumbers;
  end;

  TWell = Class(TObject)
  private
    Well : TWellRecord;
    procedure WriteWell(WellWriter : TWellPkgWriter);
    procedure WriteMT3DConcentrations(const Lines : TStrings);
  end;


implementation

uses Variables, ModflowUnit, ProgressUnit, InitializeBlockUnit,
  InitializeVertexUnit, BlockListUnit, GetCellUnit, ModflowLayerFunctions,
  BL_SegmentUnit, GridUnit, PointInsideContourUnit, RealListUnit,
  GetFractionUnit, IntListUnit, WriteNameFileUnit, UnitNumbers,
  UtilityFunctions;

function WellSortFunction(Item1, Item2: Pointer): Integer;
var
  Well1, Well2 : TWell;
begin
  Well1 := Item1;
  Well2 := Item2;
  result := Well1.Well.Layer - Well2.Well.Layer;
  if Result <> 0 then Exit;
  result := Well1.Well.Row - Well2.Well.Row;
  if Result <> 0 then Exit;
  result := Well1.Well.Column - Well2.Well.Column;
end;


{ TWellPkgWriter }

procedure TWellPkgWriter.AddParameterNameCellToStringList(
  NameList : TStringList; ParameterName : string;
  AWell : TWellRecord; Const Instance : integer);
var
  ParamIndex : integer;
  AParamValue : TWellParamValue;
  AWellList : TWellList;
  ErrorMessage : string;
begin
  ParamIndex := NameList.IndexOf(UpperCase(ParameterName));
  if ParamIndex < 0 then
  begin
    ErrorMessage := 'Error: Invalid parameter name: ' + ParameterName
      + ' in the Well package.  Contours using this parameter name will be '
      + 'ignored.';
    ErrorMessages.Add(ErrorMessage);
    frmProgress.reErrors.Lines.Add(ErrorMessage);
  end
  else
  begin
    AParamValue := NameList.Objects[ParamIndex] as TWellParamValue;
    if AParamValue.Instances.Count > 0 then
    begin
      AWellList := AParamValue.Instances.Objects[Instance] as TWellList;
    end
    else
    begin
      AWellList := AParamValue.WellList;
    end;
    AWellList.Add(AWell);
  end;
end;


procedure TWellPkgWriter.AddParameterNameCell(ParameterName : string;
      AWell : TWellRecord; Const Instance : integer);
begin
  AddParameterNameCellToStringList(ParameterNames, ParameterName, AWell,
    Instance);
end;


procedure TWellPkgWriter.GetParamIndicies(out IsParamIndex, ParamNameIndex,
  TopIndex, BottomIndex, DensityIndex : ANE_INT16; out IsParamName, ParamName,
  TopName, BottomName, DensityName : string; const
  CurrentModelHandle: ANE_PTR; WellLayer : TLayerOptions);
begin
  IsParamName := ModflowTypes.GetMFIsParameterParamType.WriteParamName;
  IsParamIndex := WellLayer.GetParameterIndex(CurrentModelHandle, IsParamName);

  ParamName := ModflowTypes.GetMFModflowParameterNameParamType.WriteParamName;
  ParamNameIndex := WellLayer.GetParameterIndex(CurrentModelHandle, ParamName);

  TopName := ModflowTypes.GetMFWellTopParamType.WriteParamName;
  TopIndex := WellLayer.GetParameterIndex(CurrentModelHandle, TopName);

  BottomName := ModflowTypes.GetMFWellBottomParamType.WriteParamName;
  BottomIndex := WellLayer.GetParameterIndex(CurrentModelHandle, BottomName);

  if ModflowTypes.GetMFBoundaryDensityParamType.UseInWells then
  begin
    DensityName := ModflowTypes.GetMFBoundaryDensityParamType.WriteParamName;
    DensityIndex := WellLayer.GetParameterIndex(CurrentModelHandle, DensityName);
  end
  else
  begin
    DensityName := '';
    DensityIndex := -1;
  end;
end;

Function TWellPkgWriter.GetBoundaryThickness(DivIndex, LayersPerUnit : integer;
  Top, UnitThickness, BoundaryTop, BoundaryBottom : double) : double;
var
  LayerTop, LayerBottom : double;
  DivWellTop, DivWellBottom : double;
begin
  LayerTop := Top- (UnitThickness/LayersPerUnit)*(DivIndex-1);
  LayerBottom := Top- (UnitThickness/LayersPerUnit)*(DivIndex);
  DivWellTop := BoundaryTop;
  if DivWellTop > LayerTop then
  begin
    DivWellTop := LayerTop
  end;
  DivWellBottom := BoundaryBottom;
  if DivWellBottom < LayerBottom then
  begin
    DivWellBottom := LayerBottom
  end;
  result := DivWellTop - DivWellBottom;
end;

{ TODO : Consider replacing with frmModflow.MODFLOWLayersAboveCount; }
function TWellPkgWriter.GetLayersAbove(UnitIndex : integer): Integer;
var
  LayerIndex : integer;
begin
  result := 0;
  for LayerIndex := 1 to UnitIndex-1 do
  begin
    if frmModflow.dgGeol.Cells[Ord(nuiSim),LayerIndex]
      = frmModflow.dgGeol.Columns[Ord(nuiSim)].PickList[1] then
    begin
      result := result + StrToInt(frmModflow.dgGeol.Cells
        [Ord(nuiVertDisc),LayerIndex]);
    end;
  end;

end;

function TWellPkgWriter.GetParameterInstanceCount(const ParameterName : string) : integer;
var
  ParamIndex : integer;
  AParamValue : TWellParamValue;
  ErrorMessage : string;
begin
  ParamIndex := ParameterNames.IndexOf(UpperCase(ParameterName));
  if ParamIndex < 0 then
  begin
    result := -1;
    ErrorMessage := 'Error: Invalid parameter name: ' + ParameterName
      + ' in the Well package.  Contours using this parameter name will be '
      + 'ignored.';
    ErrorMessages.Add(ErrorMessage);
    frmProgress.reErrors.Lines.Add(ErrorMessage);
//    raise EInvalidParameterName.Create('Invalid parameter name: ' + ParameterName
//      + '.');
  end
  else
  begin
    AParamValue := ParameterNames.Objects[ParamIndex] as TWellParamValue;
    result := AParamValue.Instances.Count;
    if result = 0 then
    begin
      result := 1;
    end
  end;
end;

procedure TWellPkgWriter.EvaluatePointLayer(const
  CurrentModelHandle: ANE_PTR; UnitIndex : integer;
  ProjectOptions : TProjectOptions; Discretization : TDiscretizationWriter);
var
  LayerName : string;
  LayerHandle : ANE_PTR;
  WellLayer : TLayerOptions;
  IsParamIndex : ANE_INT16;
  ParamNameIndex : ANE_INT16;
  TopIndex : ANE_INT16;
  BottomIndex : ANE_INT16;
//  CellGroupIndex : ANE_INT16;
  TimeIndex : integer;
  TimeParamName : string;
  QIndicies : array of Integer;
  ConcentrationIndicies : array of Integer;
  MT3DConcentrationIndicies : array of array of Integer;
  IFACEIndicies : array of Integer;
  ContourCount : integer;
  ContourIndex : integer;
  Contour : TContourObjectOptions;
  IsParam : boolean;
  ParameterName : string;
  AWell : TWellRecord;
  CellIndex : integer;
  Top, Bottom : double;
  StressPeriodCount : integer;
  StressPeriodIndex : integer;
  WellList : TWellList;
  IsParamName, ParamName, TopName, BottomName: string;
  WellTop, WellBottom : ANE_Double;
  DivIndex : integer;
  Pumpage : ANE_Double;
  UnitThickness : ANE_Double;
  LayersPerUnit : integer;
  LayerTop, LayerBottom : ANE_Double;
  DivWellTop, DivWellBottom, DivThickness : ANE_Double;
  DivThicknesses : TRealList;
  Layer : integer;
  WellThickness : double;
  TopErrors, BottomErrors, ThicknessErrors, NameErrors : TStringList;
  AString : string;
  InstanceLimit : integer;
  SpeciesIndex : integer;
  SpeciesCount : integer;
  DensityIndex: ANE_INT16;
  DensityName: string;
begin
  // point wells
  AWell.Q := 0;
  AWell.IFACE := 0;
  AWell.Concentration := 0;

  TopErrors := TStringList.Create;
  BottomErrors := TStringList.Create;
  ThicknessErrors := TStringList.Create;
  NameErrors := TStringList.Create;
  try
    Layer := GetLayersAbove(UnitIndex);
    LayersPerUnit := StrToInt(frmMODFLOW.dgGeol.Cells
      [Ord(nuiVertDisc),UnitIndex]);
    StressPeriodCount := frmModflow.dgTime.RowCount -1;
    if frmMODFLOW.comboWelSteady.ItemIndex = 0 then
    begin
      StressPeriodCount := 1;
    end;
    SetLength(QIndicies,StressPeriodCount);
    if frmMODFLOW.cbMOC3D.Checked then
    begin
      SetLength(ConcentrationIndicies,StressPeriodCount);
    end;
    if ModflowTypes.GetMFWellLayerType.UseIFACE then
    begin
      SetLength(IFACEIndicies,StressPeriodCount);
    end;
    if frmMODFLOW.cbMT3D.Checked then
    begin
      SpeciesCount := StrToInt(frmModflow.adeMT3DNCOMP.Text);
      SetLength(MT3DConcentrationIndicies,StressPeriodCount, SpeciesCount);
      SetLength(AWell.MT3DConcentrations, SpeciesCount);
    end;

    LayerName := ModflowTypes.GetMFWellLayerType.WriteNewRoot
      + IntToStr(UnitIndex);
    AddVertexLayer(CurrentModelHandle,LayerName);
    LayerHandle :=  ProjectOptions.GetLayerByName(CurrentModelHandle,LayerName);
    WellLayer := TLayerOptions.Create(LayerHandle);
    try
      ContourCount := WellLayer.NumObjects(CurrentModelHandle,pieContourObject);
      if ContourCount > 0 then
      begin
        GetParamIndicies(IsParamIndex, ParamNameIndex,
          TopIndex, BottomIndex, DensityIndex, IsParamName, ParamName,
          TopName, BottomName, DensityName, CurrentModelHandle, WellLayer);

        for TimeIndex := 1 to StressPeriodCount do
        begin
          if not ContinueExport then break;
          Application.ProcessMessages;

          TimeParamName := ModflowTypes.GetMFWellStressParamType.WriteParamName
            + IntToStr(TimeIndex);
          QIndicies[TimeIndex -1] := WellLayer.GetParameterIndex
            (CurrentModelHandle, TimeParamName);

          if frmMODFLOW.cbMOC3D.Checked then
          begin
            TimeParamName := ModflowTypes.GetMFConcentrationParamType.WriteParamName
              + IntToStr(TimeIndex);
            ConcentrationIndicies[TimeIndex -1] := WellLayer.GetParameterIndex
              (CurrentModelHandle, TimeParamName);
          end;
          if ModflowTypes.GetMFWellLayerType.UseIFACE then
          begin
            TimeParamName := ModflowTypes.GetMFIFACEParamType.WriteParamName
              + IntToStr(TimeIndex);
            IFACEIndicies[TimeIndex -1] := WellLayer.GetParameterIndex
              (CurrentModelHandle, TimeParamName);
          end;
          if frmMODFLOW.cbMT3D.Checked then
          begin
            for SpeciesIndex := 1 to SpeciesCount do
            begin
              case SpeciesIndex of
                1: TimeParamName := ModflowTypes.GetMFConcentrationParamType.ANE_ParamName;
                2: TimeParamName := ModflowTypes.GetMT3DConc2ParamClassType.ANE_ParamName;
                3: TimeParamName := ModflowTypes.GetMT3DConc3ParamClassType.ANE_ParamName;
                4: TimeParamName := ModflowTypes.GetMT3DConc4ParamClassType.ANE_ParamName;
                5: TimeParamName := ModflowTypes.GetMT3DConc5ParamClassType.ANE_ParamName;
              else Assert(False);
              end;
              TimeParamName := TimeParamName + IntToStr(TimeIndex);
              MT3DConcentrationIndicies[TimeIndex -1, SpeciesIndex-1]
                := WellLayer.GetParameterIndex(CurrentModelHandle, TimeParamName);
            end;
          end;
        end;


        frmProgress.pbActivity.Max := ContourCount;
        for ContourIndex := 0 to ContourCount -1 do
        begin
          frmProgress.pbActivity.StepIt;
          if not ContinueExport then break;
          Application.ProcessMessages;
          Contour := TContourObjectOptions.Create
            (CurrentModelHandle,LayerHandle,ContourIndex);
          try
            if Contour.NumberOfNodes(CurrentModelHandle) <> 1 then
            begin
              Inc(PointErrors);
            end
            else
            begin
              IsParam := Contour.GetBoolParameter(CurrentModelHandle,IsParamIndex);
              if IsParam then
              begin
                ParameterName := Contour.GetStringParameter(CurrentModelHandle,ParamNameIndex);
                InstanceLimit := GetParameterInstanceCount(ParameterName);
              end;

              WellTop := Contour.GetFloatParameter(CurrentModelHandle,TopIndex);
              WellBottom := Contour.GetFloatParameter(CurrentModelHandle,BottomIndex);
              if ModflowTypes.GetMFBoundaryDensityParamType.UseInWells then
              begin
                AWell.FluidDensity := Contour.GetFloatParameter(CurrentModelHandle,DensityIndex);
              end
              else
              begin
                AWell.FluidDensity := 0;
              end;

              for CellIndex := 0 to GGetCountOfACellList(ContourIndex) -1 do
              begin
                if not ContinueExport then break;
                Application.ProcessMessages;
                AWell.Row := GGetCellRow(ContourIndex, CellIndex);
                AWell.Column := GGetCellColumn(ContourIndex, CellIndex);
                Top := Discretization.Elevations[AWell.Column-1,AWell.Row-1,UnitIndex-1];
                Bottom := Discretization.Elevations[AWell.Column-1,AWell.Row-1,UnitIndex];
                UnitThickness := Discretization.Thicknesses[AWell.Column-1,AWell.Row-1,UnitIndex-1];
                if (WellTop > Top) or (WellTop < Bottom) then
                begin
                  if ShowWarnings then
                  begin
                    if WellTop > Top then
                    begin
                      TopErrors.Add(Format
                        ('[%d, %d] Top Elevation > top of unit', [AWell.Row, AWell.Column]));
                    end;
                    if WellTop < Bottom then
                    begin
                      BottomErrors.Add(Format
                        ('[%d, %d] Top Elevation < bottom of unit', [AWell.Row, AWell.Column]));
                    end;
                  end;
                  WellTop := Top;
                end;

                if (WellBottom > Top) or (WellBottom < Bottom) then
                begin
                  if ShowWarnings then
                  begin
                    if WellBottom > Top then
                    begin
                      TopErrors.Add(Format
                        ('[%d, %d] Bottom Elevation > top of unit', [AWell.Row, AWell.Column]));
                    end;
                    if WellBottom < Bottom then
                    begin
                      BottomErrors.Add(Format
                        ('[%d, %d] Bottom Elevation < bottom of unit', [AWell.Row, AWell.Column]));
                    end;
                  end;
                  WellBottom := Bottom;
                end;

                WellThickness := WellTop - WellBottom;

                if ShowWarnings and (WellThickness <= 0) then
                begin
                  ThicknessErrors.Add(Format
                    ('[%d, %d]', [AWell.Row, AWell.Column]));
                end;
                if WellThickness > 0 then
                begin
                  if IsParam then
                  begin
                    for StressPeriodIndex := 0 to InstanceLimit-1 do
                    begin
                      Pumpage := Contour.GetFloatParameter(CurrentModelHandle,QIndicies[StressPeriodIndex]);
                      if frmMODFLOW.cbMOC3D.Checked then
                      begin
                        AWell.Concentration := Contour.GetFloatParameter
                          (CurrentModelHandle,ConcentrationIndicies[StressPeriodIndex]);
                      end;

                      if ModflowTypes.GetMFWellLayerType.UseIFACE then
                      begin
                        AWell.IFACE := Contour.GetIntegerParameter
                          (CurrentModelHandle,IFACEIndicies[StressPeriodIndex]);
                      end;
                      if frmMODFLOW.cbMT3D.Checked then
                      begin
                        for SpeciesIndex := 1 to SpeciesCount do
                        begin
                          AWell.MT3DConcentrations[SpeciesIndex-1] :=
                            Contour.GetFloatParameter(CurrentModelHandle,
                            MT3DConcentrationIndicies
                              [StressPeriodIndex, SpeciesIndex-1]);
                        end;
                      end;

                      for DivIndex := 1 to LayersPerUnit do
                      begin
                        DivThickness := GetBoundaryThickness(DivIndex, LayersPerUnit,
                          Top, UnitThickness, WellTop, WellBottom);

                        if DivThickness > 0 then
                        begin
                          AWell.Layer := Layer + DivIndex;
                          AWell.Q := DivThickness/WellThickness * Pumpage;
                          try
                            AddParameterNameCell(ParameterName,AWell,
                              StressPeriodIndex);
                          except on EInvalidParameterName do
                            begin
                              AString := IntToStr(AWell.Row) + ', '
                                + IntToStr(AWell.Column) + ', '
                                + ParameterName;
                              if NameErrors.IndexOf(AString) < 0 then
                              begin
                                NameErrors.Add(AString);
                              end;
                            end;
                          end;

                        end;
                      end;
                    end;
                  end
                  else
                  begin
                    DivThicknesses := TRealList.Create;
                    try
                      for DivIndex := 1 to LayersPerUnit do
                      begin
                        DivThickness := GetBoundaryThickness(DivIndex, LayersPerUnit,
                          Top, UnitThickness, WellTop, WellBottom);
                        DivThicknesses.Add(DivThickness);
                      end;

                      for StressPeriodIndex := 0 to StressPeriodCount-1 do
                      begin
                        if not ContinueExport then break;
                        Application.ProcessMessages;
                        Pumpage := Contour.GetFloatParameter(CurrentModelHandle,QIndicies[StressPeriodIndex]);
                        if Pumpage <> 0 then
                        begin
                          if frmMODFLOW.cbMOC3D.Checked then
                          begin
                            AWell.Concentration := Contour.GetFloatParameter
                              (CurrentModelHandle,ConcentrationIndicies[StressPeriodIndex]);
                          end;

                          if ModflowTypes.GetMFWellLayerType.UseIFACE then
                          begin
                            AWell.IFACE := Contour.GetIntegerParameter
                              (CurrentModelHandle,IFACEIndicies[StressPeriodIndex]);
                          end;
                          if frmMODFLOW.cbMT3D.Checked then
                          begin
                            for SpeciesIndex := 1 to SpeciesCount do
                            begin
                              AWell.MT3DConcentrations[SpeciesIndex-1] :=
                                Contour.GetFloatParameter(CurrentModelHandle,
                                MT3DConcentrationIndicies
                                  [StressPeriodIndex, SpeciesIndex-1]);
                            end;
                          end;

                          for DivIndex := 0 to LayersPerUnit-1 do
                          begin
                            DivThickness := DivThicknesses.Items[DivIndex];
                            if DivThickness > 0 then
                            begin
                              AWell.Layer := Layer + DivIndex + 1;
                              AWell.Q := DivThickness/WellThickness * Pumpage;
                              WellList := WellTimes[StressPeriodIndex];
                              WellList.Add(AWell);
                            end;
                          end;
                        end;
                      end;
                    finally
                      DivThicknesses.Free;
                    end;

                  end;
                end;
              end;
            end;
          finally
            Contour.Free;
          end;
        end;
      end;
    finally
      WellLayer.Free(CurrentModelHandle);
    end;
    if TopErrors.Count > 0 then
    begin
      AString := 'Warning: Some point well top elevations extend outside of the geologic '
        + 'unit in unit '
        + IntToStr(UnitIndex) + '.';
      frmProgress.reErrors.Lines.Add(AString);
      ErrorMessages.Add('');
      ErrorMessages.Add(AString);

      AString := 'Top elevations outside the unit will be treated as if they '
        + 'are at the top of the unit.';
      frmProgress.reErrors.Lines.Add(AString);
      ErrorMessages.Add(AString);

      AString := '[Row, Col]';
      ErrorMessages.Add(AString);
      ErrorMessages.AddStrings(TopErrors);
    end;
    if BottomErrors.Count > 0 then
    begin
      AString := 'Warning: Some point well bottom elevations extend outside of the geologic '
        + 'unit in unit '
        + IntToStr(UnitIndex) + '.';
      frmProgress.reErrors.Lines.Add(AString);
      ErrorMessages.Add('');
      ErrorMessages.Add(AString);

      AString := 'Bottom elevations outside the unit will be treated as if they '
        + 'are at the bottom of the unit.';
      frmProgress.reErrors.Lines.Add(AString);
      ErrorMessages.Add(AString);

      AString := '[Row, Col]';
      ErrorMessages.Add(AString);
      ErrorMessages.AddStrings(BottomErrors);
    end;
    if ThicknessErrors.Count > 0 then
    begin
      AString := 'Warning: Some point well vertical extents are <= 0 in unit '
        + IntToStr(UnitIndex) + '.';
      frmProgress.reErrors.Lines.Add(AString);
      ErrorMessages.Add('');
      ErrorMessages.Add(AString);

      AString := 'These wells will be skipped.';
      frmProgress.reErrors.Lines.Add(AString);
      ErrorMessages.Add(AString);

      AString := '[Row, Col]';
      ErrorMessages.Add(AString);
      ErrorMessages.AddStrings(ThicknessErrors);
    end;
    if NameErrors.Count > 0 then
    begin
      AString := 'Warning: Some point wells had invalid parameter names in unit '
        + IntToStr(UnitIndex) + '.';
      frmProgress.reErrors.Lines.Add(AString);
      ErrorMessages.Add('');
      ErrorMessages.Add(AString);

      AString := 'These wells will be skipped.';
      frmProgress.reErrors.Lines.Add(AString);
      ErrorMessages.Add(AString);

      AString := '[Row, Col, Parameter Name]';
      ErrorMessages.Add(AString);
      ErrorMessages.AddStrings(NameErrors);
    end;
  finally
    TopErrors.Free;
    BottomErrors.Free;
    ThicknessErrors.Free;
    NameErrors.Free;
  end;
end;

procedure TWellPkgWriter.EvaluateLineLayer(const
  CurrentModelHandle: ANE_PTR; UnitIndex : integer;
  ProjectOptions : TProjectOptions; Discretization : TDiscretizationWriter);
var
  LayerName : string;
  LayerHandle : ANE_PTR;
  WellLayer : TLayerOptions;
  GridLayer : TLayerOptions;
  IsParamIndex : ANE_INT16;
  ParamNameIndex : ANE_INT16;
  TopIndex : ANE_INT16;
  BottomIndex : ANE_INT16;
  TimeIndex : integer;
  TimeParamName : string;
  QIndicies : array of Integer;
  QTotalIndicies : array of Integer;
  StressIndicatorIndicies : array of Integer;
  ConcentrationIndicies : array of Integer;
  IFACEIndicies : array of Integer;
  ContourCount : integer;
  ContourIndex : integer;
  Contour : TContourObjectOptions;
  IsParam : boolean;
  ParameterName : string;
  AWell : TWellRecord;
  CellIndex : integer;
  Top, Bottom : double;
  StressPeriodCount : integer;
  StressPeriodIndex : integer;
  WellList : TWellList;
  ContourTop, ContourBottom : double;
  ContourLength, TotalContourLength : double;
  BlockIndex : integer;
  ABlock : TBlockObjectOptions;
  X, Y : ANE_DOUBLE;
  IsParamName, ParamName, TopName, BottomName: string;
  QNames, QTotalNames, StressIndicators : TStringList;
  ConcentrationNames : TStringList;
  IFACENames : TStringList;
  Used : boolean;
  Pumpage : ANE_DOUBLE;
  PumpageTypeIndicator : ANE_INT32;
  LayersPerUnit : integer;
  DivIndex : integer;
  WellTop, WellBottom : ANE_Double;
  UnitThickness, DivThickness : double;
  Pumpages : TRealList;
  PumpageIndicators : TIntegerList;
  Layer : integer;
  WellThickness : double;
  TopErrors, BottomErrors, ThicknessErrors, NameErrors : TStringList;
  AString : string;
  InstanceLimit : integer;
  SpeciesIndex : integer;
  SpeciesCount : integer;
  MT3DConcentrationNames : array of array of string;
  MT3DConcentrationIndicies : array of array of Integer;
  DensityIndex: ANE_INT16;
  DensityName: string;
begin
  // line wells
  PumpageTypeIndicator := -1;
  AWell.Q := 0;
  AWell.IFACE := 0;
  AWell.Concentration := 0;
  TopErrors := TStringList.Create;
  BottomErrors := TStringList.Create;
  ThicknessErrors := TStringList.Create;
  NameErrors := TStringList.Create;
  try
    Layer := GetLayersAbove(UnitIndex);
    LayersPerUnit := StrToInt(frmMODFLOW.dgGeol.Cells
      [Ord(nuiVertDisc),UnitIndex]);
    StressPeriodCount := frmModflow.dgTime.RowCount -1;
    if frmMODFLOW.comboWelSteady.ItemIndex = 0 then
    begin
      StressPeriodCount := 1;
    end;
    SetLength(QIndicies,StressPeriodCount);
    SetLength(QTotalIndicies,StressPeriodCount);
    SetLength(StressIndicatorIndicies,StressPeriodCount);
    if frmMODFLOW.cbMOC3D.Checked then
    begin
      SetLength(ConcentrationIndicies,StressPeriodCount);
    end;
    if ModflowTypes.GetMFLineWellLayerType.UseIFACE then
    begin
      SetLength(IFACEIndicies,StressPeriodCount);
    end;
    if frmMODFLOW.cbMT3D.Checked then
    begin
      SpeciesCount := StrToInt(frmModflow.adeMT3DNCOMP.Text);
      SetLength(MT3DConcentrationIndicies,StressPeriodCount, SpeciesCount);
      SetLength(AWell.MT3DConcentrations, SpeciesCount);
      SetLength(MT3DConcentrationNames,StressPeriodCount, SpeciesCount);
    end;

    LayerName := ModflowTypes.GetMFLineWellLayerType.WriteNewRoot
      + IntToStr(UnitIndex);
    AddVertexLayer(CurrentModelHandle,LayerName);
    LayerHandle :=  ProjectOptions.GetLayerByName(CurrentModelHandle,LayerName);
    WellLayer := TLayerOptions.Create(LayerHandle);
    GridLayer := TLayerOptions.Create(Discretization.GridLayerHandle);
    QNames := TStringList.Create;
    QTotalNames := TStringList.Create;
    ConcentrationNames := TStringList.Create;
    IFACENames := TStringList.Create;
    StressIndicators := TStringList.Create;
    try
      ContourCount := WellLayer.NumObjects(CurrentModelHandle,pieContourObject);
      if ContourCount > 0 then
      begin
        GetParamIndicies(IsParamIndex, ParamNameIndex,
          TopIndex, BottomIndex, DensityIndex, IsParamName, ParamName, TopName,
          BottomName, DensityName, CurrentModelHandle, WellLayer);

        for TimeIndex := 1 to StressPeriodCount do
        begin
          if not ContinueExport then break;
          Application.ProcessMessages;

          TimeParamName := ModflowTypes.GetMFWellStressParamType.WriteParamName