unit WriteGHBUnit;

interface

uses Sysutils, Classes, contnrs, Forms, Grids, ANEPIE,
  WriteModflowDiscretization, OptionsUnit, CopyArrayUnit;

type
  TGHBRecord = record
    Layer, Row, Column : integer;
    Bhead, CondFact : double;
    IFACE : integer;
    Concentration : double;
    CellGroupNumber : integer;
    MT3DConcentrations : T1DDoubleArray;
    Elevation: double;
    FluidDensity: double;
  end;

  TGHB_Cell = class;

  TGHBList = Class(TObjectList)
  private
    function Add(A_GHB_Cell : TGHBRecord) : integer; overload;
    procedure FillBoundaryList(Layer, Row, Column: integer;
      BoundaryList: TObjectList);
    function GetGHBByLocation(Layer, Row, Column: integer): TGHB_Cell;
    procedure Sort;
    procedure WriteMT3DConcentrations(const Lines: TStrings);
  end;

  TGHBParamValue = Class(TObject)
  private
    Value : double;
    StressPeriodsUsed: Array of boolean;
    InstanceNamesUsed: array of string;
    GHBList : TGHBList;
    Instances : TStringList;
  public
    Constructor Create(RowIndex : Integer);
    Destructor Destroy; override;
  end;

  TGHBPkgWriter = class(TCustomBoundaryWriterWithObservations)
  private
    ParameterNames : TStringList;
    GHB_Times : TList;
    MXL : integer;
    ITMP, NP : integer;
    PointErrors, LineErrors, AreaErrors: integer;
    Procedure AddParameterNameCell(ParameterName : string;
      A_GHB_Cell : TGHBRecord; Const Instance : integer);
    Procedure AddParameterName(RowIndex : integer);
    procedure EvaluateDataSets6and7(const CurrentModelHandle: ANE_PTR;
      Discretization : TDiscretizationWriter);
    procedure EvaluatePointGHBLayer(const CurrentModelHandle: ANE_PTR;
      UnitIndex: integer; ProjectOptions: TProjectOptions;
      Discretization : TDiscretizationWriter);
    procedure GetParamIndicies(out IsParamIndex, ParamNameIndex,
      ConductanceIndex, CellGroupNumberIndex, ElevIndex, DensityIndex: ANE_INT16;
      out IsParamName, ParamName, ConductanceName, CellGroupName,
      ElevationName, DensityName: string;
      const CurrentModelHandle: ANE_PTR; GHBLayer : TLayerOptions; const PointLayer: boolean);
    procedure AddParameterNames;
    procedure EvaluateLineGHBLayer(const CurrentModelHandle: ANE_PTR;
      UnitIndex: integer; ProjectOptions: TProjectOptions;
      Discretization: TDiscretizationWriter);
    procedure EvaluateAreaGHBLayer(const CurrentModelHandle: ANE_PTR;
      UnitIndex: integer; ProjectOptions: TProjectOptions;
      Discretization: TDiscretizationWriter);
    procedure WriteDataSet1;
    procedure WriteDataSet2;
    procedure WriteDataSets3And4;
    procedure WriteDataSet5(StressPeriodIndex : integer);
    procedure WriteDataSet6(StressPeriodIndex : integer);
    procedure WriteDataSet7(StressPeriodIndex : integer);
    procedure WriteDatasets5To7;
    procedure SortCells;
    function GetParameterInstanceCount(const ParameterName: string): integer;
  public
    constructor Create;
    destructor Destroy; override;
    procedure WriteFile(const CurrentModelHandle: ANE_PTR; Root: string;
      Discretization : TDiscretizationWriter);
    function BoundaryUsed(Layer, Row, Column : integer) : boolean; override;
    procedure Evaluate(const CurrentModelHandle: ANE_PTR;
      Discretization: TDiscretizationWriter);
    Procedure FillBoundaryList(Layer, Row, Column : integer;
      BoundaryList : TObjectList); override;
    procedure WriteMT3DConcentrations(const StressPeriod : integer;
      const Lines : TStrings);
    class procedure AssignUnitNumbers;
  end;

  TGHB_Cell = Class(TObject)
  private
    GHB_Record : TGHBRecord;
    procedure WriteGHB_Cell(GHBWriter : TGHBPkgWriter);
    procedure WriteMT3DConcentrations(const Lines : TStrings);
  end;


implementation

uses Variables, ModflowUnit, ProgressUnit, InitializeBlockUnit,
  InitializeVertexUnit, BlockListUnit, GetCellUnit, ModflowLayerFunctions,
  BL_SegmentUnit, GridUnit, PointInsideContourUnit, WriteNameFileUnit,
  UnitNumbers, UtilityFunctions;

function GHBSortFunction(Item1, Item2: Pointer): Integer;
var
  GHB_Cell1, GHB_Cell2 : TGHB_Cell;
begin
  GHB_Cell1 := Item1;
  GHB_Cell2 := Item2;
  result := GHB_Cell1.GHB_Record.Layer - GHB_Cell2.GHB_Record.Layer;
  if Result <> 0 then Exit;
  result := GHB_Cell1.GHB_Record.Row - GHB_Cell2.GHB_Record.Row;
  if Result <> 0 then Exit;
  result := GHB_Cell1.GHB_Record.Column - GHB_Cell2.GHB_Record.Column;
end;


{ TGHBPkgWriter }

procedure TGHBPkgWriter.AddParameterNameCell(ParameterName : string;
      A_GHB_Cell : TGHBRecord; Const Instance : integer);
var
  ParamIndex : integer;
  AParamValue : TGHBParamValue;
  GHBList : TGHBList;
  ErrorMessage : string;
begin
  ParamIndex := ParameterNames.IndexOf(UpperCase(ParameterName));
  if ParamIndex < 0 then
  begin
    ErrorMessage := 'Error: Invalid parameter name: ' + ParameterName
      + ' in the General-Head Boundary package.  Contours using this parameter name will be '
      + 'ignored.';
    ErrorMessages.Add(ErrorMessage);
    frmProgress.reErrors.Lines.Add(ErrorMessage);
//    raise EInvalidParameterName.Create('Invalid parameter name: ' + ParameterName
//      + '.');
  end
  else
  begin
    AParamValue := ParameterNames.Objects[ParamIndex] as TGHBParamValue;
    if AParamValue.Instances.Count > 0 then
    begin
      GHBList := AParamValue.Instances.Objects[Instance] as TGHBList;
    end
    else
    begin
      GHBList := AParamValue.GHBList;
    end;
    GHBList.Add(A_GHB_Cell);
  end;
end;


procedure TGHBPkgWriter.GetParamIndicies(out IsParamIndex, ParamNameIndex,
  ConductanceIndex, CellGroupNumberIndex, ElevIndex, DensityIndex: ANE_INT16;
  out IsParamName, ParamName,
  ConductanceName, CellGroupName, ElevationName, DensityName: string; const
  CurrentModelHandle: ANE_PTR; GHBLayer : TLayerOptions; const PointLayer: boolean);
begin
  IsParamName := ModflowTypes.GetMFIsParameterParamType.WriteParamName;
  IsParamIndex := GHBLayer.GetParameterIndex(CurrentModelHandle, IsParamName);

  ParamName := ModflowTypes.GetMFModflowParameterNameParamType.WriteParamName;
  ParamNameIndex := GHBLayer.GetParameterIndex(CurrentModelHandle, ParamName);

  if PointLayer or frmModflow.cbCondGhb.Checked then
  begin
    ConductanceName := ModflowTypes.GetMFGhbConductanceParamType.WriteParamName;
  end
  else
  begin
    ConductanceName := ModflowTypes.GetMFGhbConductanceParamType.WriteFactorName;
  end;
  ConductanceIndex := GHBLayer.GetParameterIndex(CurrentModelHandle, ConductanceName);

  CellGroupName := ModflowTypes.GetMFObservationGroupNumberParamType.WriteParamName;
  CellGroupNumberIndex := GHBLayer.GetParameterIndex(CurrentModelHandle, CellGroupName);

  if ModflowTypes.GetMFElevationParamType.UseInGHB then
  begin
    ElevationName := ModflowTypes.GetMFElevationParamType.WriteParamName;
    ElevIndex := GHBLayer.GetParameterIndex(CurrentModelHandle, ElevationName);
  end
  else
  begin
    ElevationName := '';
    ElevIndex := -1;
  end;

  if ModflowTypes.GetMFBoundaryDensityParamType.UseInGHB then
  begin
    DensityName := ModflowTypes.GetMFBoundaryDensityParamType.WriteParamName;
    DensityIndex := GHBLayer.GetParameterIndex(CurrentModelHandle, DensityName);
  end
  else
  begin
    DensityName := '';
    DensityIndex := -1;
  end;
end;

function TGHBPkgWriter.GetParameterInstanceCount(const ParameterName : string) : integer;
var
  ParamIndex : integer;
  AParamValue : TGHBParamValue;
  ErrorMessage : string;
begin
  ParamIndex := ParameterNames.IndexOf(UpperCase(ParameterName));
  if ParamIndex < 0 then
  begin
    result := -1;
    ErrorMessage := 'Error: Invalid parameter name: ' + ParameterName
      + ' in the General-Head Boundary package.  Contours using this parameter name will be '
      + 'ignored.';
    ErrorMessages.Add(ErrorMessage);
    frmProgress.reErrors.Lines.Add(ErrorMessage);
//    raise EInvalidParameterName.Create('Invalid parameter name: ' + ParameterName
//      + '.');
  end
  else
  begin
    AParamValue := ParameterNames.Objects[ParamIndex] as TGHBParamValue;
    result := AParamValue.Instances.Count;
    if result = 0 then
    begin
      result := 1;
    end
  end;
end;


procedure TGHBPkgWriter.EvaluatePointGHBLayer(const
  CurrentModelHandle: ANE_PTR; UnitIndex : integer;
  ProjectOptions : TProjectOptions; Discretization : TDiscretizationWriter);
var
  LayerName : string;
  LayerHandle : ANE_PTR;
  GHBLayer : TLayerOptions;
  IsParamIndex : ANE_INT16;
  ParamNameIndex : ANE_INT16;
  ConductanceIndex : ANE_INT16;
  CellGroupIndex : ANE_INT16;
//  RBOT_Index : ANE_INT16;
  TimeIndex : integer;
  TimeParamName : string;
  BheadIndicies : array of Integer;
  ConcentrationIndicies : array of Integer;
  IFACEIndicies : array of Integer;
  IsOnIndicies : array of Integer;
  ContourCount : integer;
  ContourIndex : integer;
  Contour : TContourObjectOptions;
  IsParam : boolean;
  ParameterName : string;
  A_GHB_Cell : TGHBRecord;
  CellIndex : integer;
//  Top, Bottom : double;
  StressPeriodCount : integer;
  StressPeriodIndex : integer;
  GHBList : TGHBList;
  IsParamName, ParamName, ConductanceName, CellGroupName: string;
  Used : boolean;
  Conductance : double;
  TopLayer, BottomLayer, LayerIndex : integer;
  InstanceLimit : integer;
  SpeciesIndex : integer;
  SpeciesCount : integer;
  MT3DConcentrationIndicies : array of array of Integer;
  ElevIndex, DensityIndex: ANE_INT16;
  ElevationName, DensityName: string;
begin
  SpeciesCount := 0;
  A_GHB_Cell.Bhead := 0;
  A_GHB_Cell.CondFact := 0;
  A_GHB_Cell.IFACE := 0;
  A_GHB_Cell.Concentration := 0;
  A_GHB_Cell.CellGroupNumber := 0;

  // point general-head boundaries
  TopLayer := frmMODFLOW.MODFLOWLayersAboveCount(UnitIndex) + 1;
  BottomLayer := TopLayer + frmMODFLOW.DiscretizationCount(UnitIndex) - 1;
  StressPeriodCount := frmModflow.dgTime.RowCount -1;
  if frmMODFLOW.comboGHBSteady.ItemIndex = 0 then
  begin
    StressPeriodCount := 1;
  end;
  SetLength(BheadIndicies,StressPeriodCount);
  SetLength(IsOnIndicies,StressPeriodCount);
  if frmMODFLOW.cbMOC3D.Checked then
  begin
    SetLength(ConcentrationIndicies,StressPeriodCount);
  end;
  if ModflowTypes.GetPointGHBLayerType.UseIFACE then
  begin
    SetLength(IFACEIndicies,StressPeriodCount);
  end;
  if frmMODFLOW.cbMT3D.Checked then
  begin
    SpeciesCount := StrToInt(frmModflow.adeMT3DNCOMP.Text);
    SetLength(MT3DConcentrationIndicies,StressPeriodCount, SpeciesCount);
    SetLength(A_GHB_Cell.MT3DConcentrations, SpeciesCount);
  end;

  LayerName := ModflowTypes.GetPointGHBLayerType.WriteNewRoot
    + IntToStr(UnitIndex);
  AddVertexLayer(CurrentModelHandle,LayerName);
  LayerHandle :=  ProjectOptions.GetLayerByName(CurrentModelHandle,LayerName);
  GHBLayer := TLayerOptions.Create(LayerHandle);
  try
    ContourCount := GHBLayer.NumObjects(CurrentModelHandle,pieContourObject);
    if ContourCount > 0 then
    begin
      GetParamIndicies(IsParamIndex, ParamNameIndex,
        ConductanceIndex, CellGroupIndex, ElevIndex, DensityIndex,
        IsParamName, ParamName,
        ConductanceName, CellGroupName, ElevationName, DensityName,
        CurrentModelHandle, GHBLayer, True);

      for TimeIndex := 1 to StressPeriodCount do
      begin
        if not ContinueExport then break;
        Application.ProcessMessages;

        TimeParamName := ModflowTypes.GetMFGHBHeadParamType.WriteParamName
          + IntToStr(TimeIndex);
        BheadIndicies[TimeIndex -1] := GHBLayer.GetParameterIndex
          (CurrentModelHandle, TimeParamName);

        TimeParamName := ModflowTypes.GetMFOnOffParamType.WriteParamName
          + IntToStr(TimeIndex);
        IsOnIndicies[TimeIndex -1] := GHBLayer.GetParameterIndex
          (CurrentModelHandle, TimeParamName);

        if frmMODFLOW.cbMOC3D.Checked then
        begin
          TimeParamName := ModflowTypes.GetMFConcentrationParamType.WriteParamName
            + IntToStr(TimeIndex);
          ConcentrationIndicies[TimeIndex -1] := GHBLayer.GetParameterIndex
            (CurrentModelHandle, TimeParamName);
        end;
        if ModflowTypes.GetPointGHBLayerType.UseIFACE then
        begin
          TimeParamName := ModflowTypes.GetMFIFACEParamType.WriteParamName
            + IntToStr(TimeIndex);
          IFACEIndicies[TimeIndex -1] := GHBLayer.GetParameterIndex
            (CurrentModelHandle, TimeParamName);
        end;
        if frmMODFLOW.cbMT3D.Checked then
        begin
          for SpeciesIndex := 1 to SpeciesCount do
          begin
            case SpeciesIndex of
              1: TimeParamName := ModflowTypes.GetMFConcentrationParamType.ANE_ParamName;
              2: TimeParamName := ModflowTypes.GetMT3DConc2ParamClassType.ANE_ParamName;
              3: TimeParamName := ModflowTypes.GetMT3DConc3ParamClassType.ANE_ParamName;
              4: TimeParamName := ModflowTypes.GetMT3DConc4ParamClassType.ANE_ParamName;
              5: TimeParamName := ModflowTypes.GetMT3DConc5ParamClassType.ANE_ParamName;
            else Assert(False);
            end;
            TimeParamName := TimeParamName + IntToStr(TimeIndex);
            MT3DConcentrationIndicies[TimeIndex -1, SpeciesIndex-1]
              := GHBLayer.GetParameterIndex(CurrentModelHandle, TimeParamName);
          end;
        end;
      end;


      frmProgress.pbActivity.Max := ContourCount;
      for ContourIndex := 0 to ContourCount -1 do
      begin
        frmProgress.pbActivity.StepIt;
        if not ContinueExport then break;
        Application.ProcessMessages;
        Contour := TContourObjectOptions.Create
          (CurrentModelHandle,LayerHandle,ContourIndex);
        try
          if Contour.NumberOfNodes(CurrentModelHandle) = 1 then
          begin
            if ModflowTypes.GetMFElevationParamType.UseInGHB then
            begin
              A_GHB_Cell.Elevation := Contour.GetFloatParameter(CurrentModelHandle,ElevIndex);
            end
            else
            begin
              A_GHB_Cell.Elevation := 0;
            end;
            if ModflowTypes.GetMFBoundaryDensityParamType.UseInGHB then
            begin
              A_GHB_Cell.FluidDensity := Contour.GetFloatParameter(CurrentModelHandle,DensityIndex);
            end
            else
            begin
              A_GHB_Cell.FluidDensity := 0;
            end;

            IsParam := Contour.GetBoolParameter(CurrentModelHandle,IsParamIndex);
            if IsParam then
            begin
              ParameterName := Contour.GetStringParameter(CurrentModelHandle,ParamNameIndex);
              InstanceLimit := GetParameterInstanceCount(ParameterName);
            end;

            A_GHB_Cell.CondFact := Contour.GetFloatParameter(CurrentModelHandle,ConductanceIndex);
            Conductance := A_GHB_Cell.CondFact;
  //          A_GHB_Cell.RBot := Contour.GetFloatParameter(CurrentModelHandle,RBOT_Index);
            A_GHB_Cell.CellGroupNumber := Contour.GetIntegerParameter
              (CurrentModelHandle,CellGroupIndex);

            for CellIndex := 0 to GGetCountOfACellList(ContourIndex) -1 do
            begin
              if not ContinueExport then break;
              Application.ProcessMessages;
              A_GHB_Cell.Row := GGetCellRow(ContourIndex, CellIndex);
              A_GHB_Cell.Column := GGetCellColumn(ContourIndex, CellIndex);
//              Top := Discretization.Elevations[A_GHB_Cell.Column-1,A_GHB_Cell.Row-1,UnitIndex-1];
//              Bottom := Discretization.Elevations[A_GHB_Cell.Column-1,A_GHB_Cell.Row-1,UnitIndex];
              if IsParam then
              begin
                for StressPeriodIndex := 0 to InstanceLimit-1 do
                begin
                  Used := Contour.GetBoolParameter(CurrentModelHandle,IsOnIndicies[StressPeriodIndex]);
                  if Used then
                  begin
                    A_GHB_Cell.CondFact := Conductance;
                  end
                  else
                  begin
                    A_GHB_Cell.CondFact := 0;
                  end;
                  A_GHB_Cell.Bhead := Contour.GetFloatParameter(CurrentModelHandle,BheadIndicies[StressPeriodIndex]);
                  if frmMODFLOW.cbMOC3D.Checked then
                  begin
                    A_GHB_Cell.Concentration := Contour.GetFloatParameter
                      (CurrentModelHandle,ConcentrationIndicies[StressPeriodIndex]);
                  end;
                  if ModflowTypes.GetPointGHBLayerType.UseIFACE then
                  begin
                    A_GHB_Cell.IFACE := Contour.GetIntegerParameter
                      (CurrentModelHandle,IFACEIndicies[StressPeriodIndex]);
                  end;
                  if frmMODFLOW.cbMT3D.Checked then
                  begin
                    for SpeciesIndex := 1 to SpeciesCount do
                    begin
                      A_GHB_Cell.MT3DConcentrations[SpeciesIndex-1] :=
                        Contour.GetFloatParameter(CurrentModelHandle,
                        MT3DConcentrationIndicies
                          [StressPeriodIndex, SpeciesIndex-1]);
                    end;
                  end;
                  for LayerIndex := TopLayer to BottomLayer do
                  begin
                    A_GHB_Cell.Layer := LayerIndex;
                    AddParameterNameCell(ParameterName,A_GHB_Cell, StressPeriodIndex);
                  end;
                end;
              end
              else
              begin
                for StressPeriodIndex := 0 to StressPeriodCount-1 do
                begin
                  if not ContinueExport then break;
                  Application.ProcessMessages;
                  Used := Contour.GetBoolParameter(CurrentModelHandle,
                    IsOnIndicies[StressPeriodIndex]);
                  if Used then
                  begin
                    A_GHB_Cell.CondFact := Conductance;
                  end
                  else
                  begin
                    A_GHB_Cell.CondFact := 0;
                  end;
                  A_GHB_Cell.Bhead := Contour.GetFloatParameter(CurrentModelHandle,
                    BheadIndicies[StressPeriodIndex]);
                  if frmMODFLOW.cbMOC3D.Checked then
                  begin
                    A_GHB_Cell.Concentration := Contour.GetFloatParameter
                      (CurrentModelHandle,ConcentrationIndicies[StressPeriodIndex]);
                  end;
                  if ModflowTypes.GetPointGHBLayerType.UseIFACE then
                  begin
                    A_GHB_Cell.IFACE := Contour.GetIntegerParameter
                      (CurrentModelHandle,IFACEIndicies[StressPeriodIndex]);
                  end;
                  if frmMODFLOW.cbMT3D.Checked then
                  begin
                    for SpeciesIndex := 1 to SpeciesCount do
                    begin
                      A_GHB_Cell.MT3DConcentrations[SpeciesIndex-1] :=
                        Contour.GetFloatParameter(CurrentModelHandle,
                        MT3DConcentrationIndicies
                          [StressPeriodIndex, SpeciesIndex-1]);
                    end;
                  end;
                  GHBList := GHB_Times[StressPeriodIndex];
                  for LayerIndex := TopLayer to BottomLayer do
                  begin
                    A_GHB_Cell.Layer := LayerIndex;
                    GHBList.Add(A_GHB_Cell);
                  end;
                end;
              end;
            end;
          end;
        finally
          Contour.Free;
        end;

      end;
    end;
  finally
    GHBLayer.Free(CurrentModelHandle);
  end;
end;

procedure TGHBPkgWriter.EvaluateLineGHBLayer(const
  CurrentModelHandle: ANE_PTR; UnitIndex : integer;
  ProjectOptions : TProjectOptions; Discretization : TDiscretizationWriter);
var
  LayerName : string;
  LayerHandle : ANE_PTR;
  GHBLayer : TLayerOptions;
  GridLayer : TLayerOptions;
  IsParamIndex : ANE_INT16;
  ParamNameIndex : ANE_INT16;
  ConductanceIndex : ANE_INT16;
  CellGroupIndex : ANE_INT16;
//  RBOT_Index : ANE_INT16;
  TimeIndex : integer;
  TimeParamName : string;
  BheadIndicies : array of Integer;
  ConcentrationIndicies : array of Integer;
  IFACEIndicies : array of Integer;
  IsOnIndicies : array of Integer;
  ContourCount : integer;
  ContourIndex : integer;
  Contour : TContourObjectOptions;
  IsParam : boolean;
  ParameterName : string;
  A_GHB_Cell : TGHBRecord;
  CellIndex : integer;
//  Top, Bottom : double;
  StressPeriodCount : integer;
  StressPeriodIndex : integer;
  GHBList : TGHBList;
  ContourConductance : double;
  ContourLength : double;
  BlockIndex : integer;
  ABlock : TBlockObjectOptions;
  X, Y : ANE_DOUBLE;
  IsParamName, ParamName, ConductanceName, CellGroupName: string;
  BheadNames : TStringList;
  ConcentrationNames : TStringList;
  IFACENames : TStringList;
  Used : boolean;
  TopLayer, BottomLayer, LayerIndex : integer;
  InstanceLimit : integer;
  SpeciesIndex : integer;
  SpeciesCount : integer;
  MT3DConcentrationNames : array of array of string;
  MT3DConcentrationIndicies : array of array of Integer;
  ElevIndex, DensityIndex: ANE_INT16;
  ElevationName, DensityName: string;
begin
  // line general-head boundaries
  ContourConductance := 0;
  SpeciesCount := 0;
  IsParam := False;
  A_GHB_Cell.Bhead := 0;
  A_GHB_Cell.CondFact := 0;
  A_GHB_Cell.IFACE := 0;
  A_GHB_Cell.Concentration := 0;
  A_GHB_Cell.CellGroupNumber := 0;

  TopLayer := frmMODFLOW.MODFLOWLayersAboveCount(UnitIndex) + 1;
  BottomLayer := TopLayer + frmMODFLOW.DiscretizationCount(UnitIndex) - 1;
  StressPeriodCount := frmModflow.dgTime.RowCount -1;
  if frmMODFLOW.comboGHBSteady.ItemIndex = 0 then
  begin
    StressPeriodCount := 1;
  end;
  SetLength(BheadIndicies,StressPeriodCount);
  SetLength(IsOnIndicies,StressPeriodCount);
  if frmMODFLOW.cbMOC3D.Checked then
  begin
    SetLength(ConcentrationIndicies,StressPeriodCount);
  end;
  if ModflowTypes.GetLineGHBLayerType.UseIFACE then
  begin
    SetLength(IFACEIndicies,StressPeriodCount);
  end;
  if frmMODFLOW.cbMT3D.Checked then
  begin
    SpeciesCount := StrToInt(frmModflow.adeMT3DNCOMP.Text);
    SetLength(MT3DConcentrationIndicies,StressPeriodCount, SpeciesCount);
    SetLength(A_GHB_Cell.MT3DConcentrations, SpeciesCount);
    SetLength(MT3DConcentrationNames,StressPeriodCount, SpeciesCount);
  end;

  LayerName := ModflowTypes.GetLineGHBLayerType.WriteNewRoot
    + IntToStr(UnitIndex);
  AddVertexLayer(CurrentModelHandle,LayerName);
  LayerHandle :=  ProjectOptions.GetLayerByName(CurrentModelHandle,LayerName);
  GHBLayer := TLayerOptions.Create(LayerHandle);
  GridLayer := TLayerOptions.Create(Discretization.GridLayerHandle);
  BheadNames := TStringList.Create;
  ConcentrationNames := TStringList.Create;
  IFACENames := TStringList.Create;
  try
    ContourCount := GHBLayer.NumObjects(CurrentModelHandle,pieContourObject);
    if ContourCount > 0 then
    begin
      GetParamIndicies(IsParamIndex, ParamNameIndex,
        ConductanceIndex, CellGroupIndex, ElevIndex, DensityIndex,
        IsParamName, ParamName,
        ConductanceName, CellGroupName, ElevationName, DensityName,
        CurrentModelHandle, GHBLayer, False);

      for TimeIndex := 1 to StressPeriodCount do
      begin
        if not ContinueExport then break;
        Application.ProcessMessages;

        TimeParamName := ModflowTypes.GetMFGHBHeadParamType.WriteParamName
          + IntToStr(TimeIndex);
        BheadNames.Add(TimeParamName);
        BheadIndicies[TimeIndex -1] := GHBLayer.GetParameterIndex
          (CurrentModelHandle, TimeParamName);

        TimeParamName := ModflowTypes.GetMFOnOffParamType.WriteParamName
          + IntToStr(TimeIndex);
        IsOnIndicies[TimeIndex -1] := GHBLayer.GetParameterIndex
          (CurrentModelHandle, TimeParamName);

        if frmMODFLOW.cbMOC3D.Checked then
        begin
          TimeParamName := ModflowTypes.GetMFConcentrationParamType.WriteParamName
            + IntToStr(TimeIndex);
          ConcentrationNames.Add(TimeParamName);
          ConcentrationIndicies[TimeIndex -1] := GHBLayer.GetParameterIndex
            (CurrentModelHandle, TimeParamName);
        end; // if frmMODFLOW.cbMOC3D.Checked then
        if ModflowTypes.GetLineGHBLayerType.UseIFACE then
        begin
          TimeParamName := ModflowTypes.GetMFIFACEParamType.WriteParamName
            + IntToStr(TimeIndex);
          IFACENames.Add(TimeParamName);
          IFACEIndicies[TimeIndex -1] := GHBLayer.GetParameterIndex
            (CurrentModelHandle, TimeParamName);
        end; //  if ModflowTypes.GetLineGHBLayerType.UseIFACE then
        if frmMODFLOW.cbMT3D.Checked then
        begin
          for SpeciesIndex := 1 to SpeciesCount do
          begin
            case SpeciesIndex of
              1: TimeParamName := ModflowTypes.GetMFConcentrationParamType.ANE_ParamName;
              2: TimeParamName := ModflowTypes.GetMT3DConc2ParamClassType.ANE_ParamName;
              3: TimeParamName := ModflowTypes.GetMT3DConc3ParamClassType.ANE_ParamName;
              4: TimeParamName := ModflowTypes.GetMT3DConc4ParamClassType.ANE_ParamName;
              5: TimeParamName := ModflowTypes.GetMT3DConc5ParamClassType.ANE_ParamName;
            else Assert(False);
            end;
            TimeParamName := TimeParamName + IntToStr(TimeIndex);
            MT3DConcentrationNames[TimeIndex -1, SpeciesIndex-1] := TimeParamName;
            MT3DConcentrationIndicies[TimeIndex -1, SpeciesIndex-1]
              := GHBLayer.GetParameterIndex(CurrentModelHandle, TimeParamName);
          end;
        end;
      end; // for TimeIndex := 1 to StressPeriodCount do

      frmProgress.pbActivity.Max := ContourCount;
      for ContourIndex := 0 to ContourCount -1 do
      begin
        if not ContinueExport then break;
        frmProgress.pbActivity.StepIt;
        Application.ProcessMessages;
        Contour := TContourObjectOptions.Create
          (CurrentModelHandle,LayerHandle,ContourIndex);
        try
          if Contour.ContourType(CurrentModelHandle) = ctOpen then
          begin
            if not frmMODFLOW.cbAltGHB.Checked then
            begin
              ContourConductance := Contour.GetFloatParameter(CurrentModelHandle,ConductanceIndex);
              IsParam := Contour.GetBoolParameter(CurrentModelHandle,IsParamIndex);
              if IsParam then
              begin
                ParameterName := Contour.GetStringParameter(CurrentModelHandle,ParamNameIndex);
                InstanceLimit := GetParameterInstanceCount(ParameterName);
              end; // if IsParam then
              A_GHB_Cell.CellGroupNumber := Contour.GetIntegerParameter
                (CurrentModelHandle,CellGroupIndex);
              if ModflowTypes.GetMFElevationParamType.UseInGHB then
              begin
                A_GHB_Cell.Elevation := Contour.GetFloatParameter(CurrentModelHandle,ElevIndex);
              end
              else
              begin
                A_GHB_Cell.Elevation := 0;
              end;
              if ModflowTypes.GetMFBoundaryDensityParamType.UseInGHB then
              begin
                A_GHB_Cell.FluidDensity := Contour.GetFloatParameter(CurrentModelHandle,DensityIndex);
              end
              else
              begin
                A_GHB_Cell.FluidDensity := 0;
              end;
            end; // if not frmMODFLOW.cbAltGHB.Checked then

            for CellIndex := 0 to GGetCountOfACellList(ContourIndex) -1 do
            begin
              if not ContinueExport then break;
              Application.ProcessMessages;
              A_GHB_Cell.Row := GGetCellRow(ContourIndex, CellIndex);
              A_GHB_Cell.Column := GGetCellColumn(ContourIndex, CellIndex);
              ContourLength := GGetCellSumSegmentLength(ContourIndex, CellIndex);
//              Top := Discretization.Elevations[A_GHB_Cell.Column-1,A_GHB_Cell.Row-1,UnitIndex-1];
//              Bottom := Discretization.Elevations[A_GHB_Cell.Column-1,A_GHB_Cell.Row-1,UnitIndex];
              if frmMODFLOW.cbAltGHB.Checked then
              begin
                BlockIndex := Discretization.BlockIndex(A_GHB_Cell.Row-1,A_GHB_Cell.Column-1);
                ABlock := TBlockObjectOptions.Create(CurrentModelHandle,
                  Discretization.GridLayerHandle, BlockIndex);
                try
                  ABlock.GetCenter(CurrentModelHandle, X, Y);
                finally
                  ABlock.Free;
                end;
                ContourConductance := GridLayer.RealValueAtXY
                  (CurrentModelHandle, X, Y, LayerName + '.' + ConductanceName);
                if frmModflow.cbCondGhb.Checked then
                begin
                  A_GHB_Cell.CondFact := ContourConductance;
                end
                else
                begin
                  A_GHB_Cell.CondFact := ContourConductance*ContourLength;
                end;

                IsParam := GridLayer.BooleanValueAtXY
                  (CurrentModelHandle, X, Y, LayerName + '.' + IsParamName);
                if IsParam then
                begin
                  ParameterName := GridLayer.StringValueAtXY
                    (CurrentModelHandle, X, Y, LayerName + '.' + ParamName);
                  InstanceLimit := GetParameterInstanceCount(ParameterName);
                end; // if IsParam then
                A_GHB_Cell.CellGroupNumber := GridLayer.IntegerValueAtXY
                  (CurrentModelHandle, X, Y, LayerName + '.' + CellGroupName);
                if ModflowTypes.GetMFElevationParamType.UseInGHB then
                begin
                  A_GHB_Cell.Elevation := GridLayer.RealValueAtXY
                    (CurrentModelHandle, X, Y, LayerName + '.' + ElevationName);
                end
                else
                begin
                  A_GHB_Cell.Elevation := 0;
                end;
                if ModflowTypes.GetMFBoundaryDensityParamType.UseInGHB then
                begin
                  A_GHB_Cell.FluidDensity := GridLayer.RealValueAtXY