unit WriteRiverUnit;

interface

uses Sysutils, Classes, contnrs, Forms, Dialogs, Grids, ANEPIE,
  WriteModflowDiscretization, OptionsUnit, CopyArrayUnit;

type
  TReachRecord = record
    Layer, Row, Column : integer;
    Stage, CondFact, RBot : double;
    IFACE : integer;
    Concentration : double;
    CellGroupNumber : integer;
    MT3DConcentrations : T1DDoubleArray;
    Thickness: double;
    FluidDensity: double;
  end;

  TReach = class;

  TReachList = Class(TObjectList)
    function Add(AReach : TReachRecord) : integer; overload;
    function GetReachByLocation(Layer, Row, Column : integer) : TReach;
    procedure Sort;
    procedure WriteMT3DConcentrations(const Lines: TStrings);
  private
    procedure FillBoundaryList(Layer, Row, Column: integer;
      BoundaryList : TObjectList);
  end;

  TRiverParamValue = Class(TObject)
  private
    Value : double;
    StressPeriodsUsed: Array of boolean;
    InstanceNamesUsed: array of string;
    ReachList : TReachList;
    Instances : TStringList;
  public
    Constructor Create(RowIndex : Integer);
    Destructor Destroy; override;
  end;

  TRiverPkgWriter = class(TCustomBoundaryWriterWithObservations)
  private
    ParameterNames : TStringList;
    ReachTimes : TList;
    MXL : integer;
    ITMP, NP : integer;
    PointErrors, LineErrors, AreaErrors: integer;
    Procedure AddParameterNameCell(ParameterName : string;
      AReach : TReachRecord; Const Instance : integer);
    Procedure AddParameterName(RowIndex : integer);
    procedure EvaluateDataSets6and7(const CurrentModelHandle: ANE_PTR;
      Discretization : TDiscretizationWriter);
    procedure GetParamIndicies(out IsParamIndex, ParamNameIndex,
      ConductanceIndex, RBOT_Index, CellGroupIndex, ThicknessIndex,
      FluidDensityIndex: ANE_INT16;
      out IsParamName, ParamName, ConductanceName, RBotName, CellGroupName,
      ThicknessName, FluidDensityName: string;
      const CurrentModelHandle: ANE_PTR; RiverLayer : TLayerOptions;
      const PointLayer: boolean);
    procedure AddParameterNames;
    procedure EvaluatePointRiverLayer(const CurrentModelHandle: ANE_PTR;
      UnitIndex: integer; ProjectOptions: TProjectOptions;
      Discretization : TDiscretizationWriter);
    procedure EvaluateLineRiverLayer(const CurrentModelHandle: ANE_PTR;
      UnitIndex: integer; ProjectOptions: TProjectOptions;
      Discretization: TDiscretizationWriter);
    procedure EvaluateAreaRiverLayer(const CurrentModelHandle: ANE_PTR;
      UnitIndex: integer; ProjectOptions: TProjectOptions;
      Discretization: TDiscretizationWriter);
    procedure WriteDataSet1;
    procedure WriteDataSet2;
    procedure WriteDataSets3And4;
    procedure WriteDatasets5To7;
    procedure WriteDataSet5(StressPeriodIndex : integer);
    procedure WriteDataSet6(StressPeriodIndex : integer);
    procedure WriteDataSet7(StressPeriodIndex : integer);
    procedure SortReaches;
    function GetParameterInstanceCount(const ParameterName: string): integer;
  public
    constructor Create;
    Destructor Destroy; override;
    procedure WriteFile(
      const CurrentModelHandle: ANE_PTR; Root: string;
      Discretization : TDiscretizationWriter);
    function BoundaryUsed(Layer, Row, Column : integer) : boolean; override;
    procedure Evaluate(const CurrentModelHandle: ANE_PTR;
      Discretization: TDiscretizationWriter);
    Procedure FillBoundaryList(Layer, Row, Column : integer;
      BoundaryList : TObjectList); override;
    procedure WriteMT3DConcentrations(const StressPeriod : integer;
      const Lines : TStrings);
    class procedure AssignUnitNumbers;
  end;

  TReach = Class(TObject)
  private
    Reach : TReachRecord;
    procedure WriteReach(RiverWriter : TRiverPkgWriter);
    procedure WriteMT3DConcentrations(const Lines : TStrings);
  end;


implementation

uses Variables, ModflowUnit, ProgressUnit, InitializeBlockUnit,
  InitializeVertexUnit, BlockListUnit, GetCellUnit, ModflowLayerFunctions,
  BL_SegmentUnit, GridUnit, PointInsideContourUnit, WriteNameFileUnit,
  UnitNumbers, UtilityFunctions;

function ReachSortFunction(Item1, Item2: Pointer): Integer;
var
  Reach1, Reach2 : TReach;
begin
  Reach1 := Item1;
  Reach2 := Item2;
  result := Reach1.Reach.Layer - Reach2.Reach.Layer;
  if Result <> 0 then Exit;
  result := Reach1.Reach.Row - Reach2.Reach.Row;
  if Result <> 0 then Exit;
  result := Reach1.Reach.Column - Reach2.Reach.Column;
end;

{ TRiverPkgWriter }

procedure TRiverPkgWriter.AddParameterNameCell(ParameterName : string;
      AReach : TReachRecord; Const Instance : integer);
var
  ParamIndex : integer;
  AParamValue : TRiverParamValue;
  AReachList : TReachList;
  ErrorMessage : string;
begin
  ParamIndex := ParameterNames.IndexOf(UpperCase(ParameterName));
  if ParamIndex < 0 then
  begin
    ErrorMessage := 'Error: Invalid parameter name: ' + ParameterName
      + ' in the River package.  Contours using this parameter name will be '
      + 'ignored.';
    ErrorMessages.Add(ErrorMessage);
    frmProgress.reErrors.Lines.Add(ErrorMessage);
//    raise EInvalidParameterName.Create('Invalid parameter name: ' + ParameterName
//      + '.');
  end
  else
  begin
    AParamValue := ParameterNames.Objects[ParamIndex] as TRiverParamValue;
    if AParamValue.Instances.Count > 0 then
    begin
      AReachList := AParamValue.Instances.Objects[Instance] as TReachList;
    end
    else
    begin
      AReachList := AParamValue.ReachList;
    end;
    AReachList.Add(AReach);
  end;
end;


procedure TRiverPkgWriter.GetParamIndicies(out IsParamIndex, ParamNameIndex,
  ConductanceIndex, RBOT_Index, CellGroupIndex, ThicknessIndex,
  FluidDensityIndex: ANE_INT16;
  out IsParamName, ParamName, ConductanceName, RBotName, CellGroupName,
  ThicknessName, FluidDensityName: string;
  const CurrentModelHandle: ANE_PTR; RiverLayer : TLayerOptions;
  const PointLayer: boolean);
begin
  IsParamName := ModflowTypes.GetMFIsParameterParamType.WriteParamName;
  IsParamIndex := RiverLayer.GetParameterIndex(CurrentModelHandle, IsParamName);

  ParamName := ModflowTypes.GetMFModflowParameterNameParamType.WriteParamName;
  ParamNameIndex := RiverLayer.GetParameterIndex(CurrentModelHandle, ParamName);

  if PointLayer or frmModflow.cbCondRiv.Checked then
  begin
    ConductanceName := ModflowTypes.GetMFRiverConductanceParamType.WriteParamName;
  end
  else
  begin
    ConductanceName := ModflowTypes.GetMFRiverConductanceParamType.WriteFactorName;
  end;
  ConductanceIndex := RiverLayer.GetParameterIndex(CurrentModelHandle, ConductanceName);

  RBotName := ModflowTypes.GetMFRiverBottomParamType.WriteParamName;
  RBOT_Index := RiverLayer.GetParameterIndex(CurrentModelHandle, RBotName);

  CellGroupName := ModflowTypes.GetMFObservationGroupNumberParamType.WriteParamName;
  CellGroupIndex := RiverLayer.GetParameterIndex(CurrentModelHandle, CellGroupName);

  if ModflowTypes.GetMFRiverBedThicknessParamType.UseParameter then
  begin
    ThicknessName := ModflowTypes.GetMFRiverBedThicknessParamType.WriteParamName;
    ThicknessIndex := RiverLayer.GetParameterIndex(CurrentModelHandle, ThicknessName);
  end
  else
  begin
    ThicknessName := '';
    ThicknessIndex := -1;
  end;

  if ModflowTypes.GetMFBoundaryDensityParamType.UseInRivers then
  begin
    FluidDensityName := ModflowTypes.GetMFBoundaryDensityParamType.WriteParamName;
    FluidDensityIndex := RiverLayer.GetParameterIndex(CurrentModelHandle, FluidDensityName);
  end
  else
  begin
    FluidDensityName := '';
    FluidDensityIndex := -1;
  end;
end;

function TRiverPkgWriter.GetParameterInstanceCount(const ParameterName : string) : integer;
var
  ParamIndex : integer;
  AParamValue : TRiverParamValue;
  ErrorMessage : string;
begin
  ParamIndex := ParameterNames.IndexOf(UpperCase(ParameterName));
  if ParamIndex < 0 then
  begin
    result := -1;
    ErrorMessage := 'Error: Invalid parameter name: ' + ParameterName
      + ' in the River package.  Contours using this parameter name will be '
      + 'ignored.';
    ErrorMessages.Add(ErrorMessage);
    frmProgress.reErrors.Lines.Add(ErrorMessage);
//    raise EInvalidParameterName.Create('Invalid parameter name: ' + ParameterName
//      + '.');
  end
  else
  begin
    AParamValue := ParameterNames.Objects[ParamIndex] as TRiverParamValue;
    result := AParamValue.Instances.Count;
    if result = 0 then
    begin
      result := 1;
    end
  end;
end;

procedure TRiverPkgWriter.EvaluatePointRiverLayer(const
  CurrentModelHandle: ANE_PTR; UnitIndex : integer;
  ProjectOptions : TProjectOptions; Discretization : TDiscretizationWriter);
var
  LayerName : string;
  LayerHandle : ANE_PTR;
  RiverLayer : TLayerOptions;
  IsParamIndex : ANE_INT16;
  ParamNameIndex : ANE_INT16;
  ConductanceIndex : ANE_INT16;
  RBOT_Index : ANE_INT16;
  CellGroupIndex : ANE_INT16;
  TimeIndex : integer;
  TimeParamName : string;
  StageIndicies : array of ANE_INT32;
  ConcentrationIndicies : array of ANE_INT32;
  MT3DConcentrationIndicies : array of array of ANE_INT32;
  IFACEIndicies : array of ANE_INT32;
  IsOnIndicies : array of ANE_INT32;
  ContourCount : integer;
  ContourIndex : integer;
  Contour : TContourObjectOptions;
  IsParam : boolean;
  ParameterName : string;
  AReach : TReachRecord;
  CellIndex : integer;
  Top, Bottom : double;
  StressPeriodCount : integer;
  StressPeriodIndex : integer;
  ReachList : TReachList;
  IsParamName, ParamName, ConductanceName, RBotName, CellGroupName: string;
  Used : boolean;
  RiverErrors : TStringList;
  AString : string;
  Conductance : double;
  InstanceLimit : integer;
  SpeciesIndex : integer;
  SpeciesCount : integer;
  ThicknessIndex : ANE_INT16;
  ThicknessName: string;
  FluidDensityIndex: ANE_INT16;
  FluidDensityName: string;
begin
  SpeciesCount := 0;
  AReach.Stage := 0;
  AReach.CondFact := 0;
  AReach.RBot := 0;
  AReach.IFACE := 0;
  AReach.Concentration := 0;

  // point rivers
  RiverErrors := TStringList.Create;
  try
    StressPeriodCount := frmModflow.dgTime.RowCount -1;
    if frmMODFLOW.comboRivSteady.ItemIndex = 0 then
    begin
      StressPeriodCount := 1;
    end;
    SetLength(StageIndicies,StressPeriodCount);
    SetLength(IsOnIndicies,StressPeriodCount);
    if frmMODFLOW.cbMOC3D.Checked then
    begin
      SetLength(ConcentrationIndicies,StressPeriodCount);
    end;
    if ModflowTypes.GetMFPointRiverLayerType.UseIFACE then
    begin
      SetLength(IFACEIndicies,StressPeriodCount);
    end;
    if frmMODFLOW.cbMT3D.Checked then
    begin
      SpeciesCount := StrToInt(frmModflow.adeMT3DNCOMP.Text);
      SetLength(MT3DConcentrationIndicies,StressPeriodCount, SpeciesCount);
      SetLength(AReach.MT3DConcentrations, SpeciesCount);
    end;

    LayerName := ModflowTypes.GetMFPointRiverLayerType.WriteNewRoot
      + IntToStr(UnitIndex);
    AddVertexLayer(CurrentModelHandle,LayerName);
    LayerHandle :=  ProjectOptions.GetLayerByName(CurrentModelHandle,LayerName);
    RiverLayer := TLayerOptions.Create(LayerHandle);
    try
      ContourCount := RiverLayer.NumObjects(CurrentModelHandle,pieContourObject);
      if ContourCount > 0 then
      begin
        GetParamIndicies(IsParamIndex, ParamNameIndex, ConductanceIndex,
        RBOT_Index, CellGroupIndex, ThicknessIndex, FluidDensityIndex,
          IsParamName, ParamName, ConductanceName, RBotName, CellGroupName,
          ThicknessName, FluidDensityName, CurrentModelHandle,
          RiverLayer, True);

        for TimeIndex := 1 to StressPeriodCount do
        begin
          if not ContinueExport then break;
          Application.ProcessMessages;

          TimeParamName := ModflowTypes.GetMFRiverStageParamType.WriteParamName
            + IntToStr(TimeIndex);
          StageIndicies[TimeIndex -1] := RiverLayer.GetParameterIndex
            (CurrentModelHandle, TimeParamName);

          TimeParamName := ModflowTypes.GetMFOnOffParamType.WriteParamName
            + IntToStr(TimeIndex);
          IsOnIndicies[TimeIndex -1] := RiverLayer.GetParameterIndex
            (CurrentModelHandle, TimeParamName);

          if frmMODFLOW.cbMOC3D.Checked then
          begin
            TimeParamName := ModflowTypes.GetMFConcentrationParamType.WriteParamName
              + IntToStr(TimeIndex);
            ConcentrationIndicies[TimeIndex -1] := RiverLayer.GetParameterIndex
              (CurrentModelHandle, TimeParamName);
          end;
          if ModflowTypes.GetMFPointRiverLayerType.UseIFACE then
          begin
            TimeParamName := ModflowTypes.GetMFIFACEParamType.WriteParamName
              + IntToStr(TimeIndex);
            IFACEIndicies[TimeIndex -1] := RiverLayer.GetParameterIndex
              (CurrentModelHandle, TimeParamName);
          end;
          if frmMODFLOW.cbMT3D.Checked then
          begin
            for SpeciesIndex := 1 to SpeciesCount do
            begin
              case SpeciesIndex of
                1: TimeParamName := ModflowTypes.GetMFConcentrationParamType.ANE_ParamName;
                2: TimeParamName := ModflowTypes.GetMT3DConc2ParamClassType.ANE_ParamName;
                3: TimeParamName := ModflowTypes.GetMT3DConc3ParamClassType.ANE_ParamName;
                4: TimeParamName := ModflowTypes.GetMT3DConc4ParamClassType.ANE_ParamName;
                5: TimeParamName := ModflowTypes.GetMT3DConc5ParamClassType.ANE_ParamName;
              else Assert(False);
              end;
              TimeParamName := TimeParamName + IntToStr(TimeIndex);
              MT3DConcentrationIndicies[TimeIndex -1, SpeciesIndex-1]
                := RiverLayer.GetParameterIndex(CurrentModelHandle, TimeParamName);
            end;
          end;
        end;

        frmProgress.pbActivity.Max := ContourCount;
        for ContourIndex := 0 to ContourCount -1 do
        begin
          frmProgress.pbActivity.StepIt;
          if not ContinueExport then break;
          Application.ProcessMessages;
          Contour := TContourObjectOptions.Create
            (CurrentModelHandle,LayerHandle,ContourIndex);
          try
            if Contour.NumberOfNodes(CurrentModelHandle) <> 1 then
            begin
              Inc(PointErrors);
            end
            else
            begin
              if ModflowTypes.GetMFRiverBedThicknessParamType.UseParameter then
              begin
                AReach.Thickness := Contour.GetFloatParameter
                  (CurrentModelHandle,ThicknessIndex);
              end
              else
              begin
                AReach.Thickness := 0;
              end;
              if ModflowTypes.GetMFBoundaryDensityParamType.UseInRivers then
              begin
                AReach.FluidDensity := Contour.GetFloatParameter
                  (CurrentModelHandle,FluidDensityIndex);
              end
              else
              begin
                AReach.FluidDensity := 0;
              end;

              IsParam := Contour.GetBoolParameter(CurrentModelHandle,IsParamIndex);
              if IsParam then
              begin
                ParameterName := Contour.GetStringParameter(CurrentModelHandle,ParamNameIndex);
                InstanceLimit := GetParameterInstanceCount(ParameterName);
              end;

              AReach.CondFact := Contour.GetFloatParameter(CurrentModelHandle,ConductanceIndex);
              Conductance := AReach.CondFact;
              AReach.RBot := Contour.GetFloatParameter
                (CurrentModelHandle,RBOT_Index);
              AReach.CellGroupNumber := Contour.GetIntegerParameter
                (CurrentModelHandle,CellGroupIndex);

              for CellIndex := 0 to GGetCountOfACellList(ContourIndex) -1 do
              begin
                if not ContinueExport then break;
                Application.ProcessMessages;
                AReach.Row := GGetCellRow(ContourIndex, CellIndex);
                AReach.Column := GGetCellColumn(ContourIndex, CellIndex);
                Top := Discretization.Elevations[AReach.Column-1,AReach.Row-1,UnitIndex-1];
                Bottom := Discretization.Elevations[AReach.Column-1,AReach.Row-1,UnitIndex];
                if IsParam then
                begin
                  for StressPeriodIndex := 0 to InstanceLimit-1 do
                  begin
                    if not ContinueExport then break;
                    Application.ProcessMessages;
                    Used := Contour.GetBoolParameter(CurrentModelHandle,IsOnIndicies[StressPeriodIndex]);
                    if Used then
                    begin
                      AReach.CondFact := Conductance;
                    end
                    else
                    begin
                      AReach.CondFact := 0;
                    end;
                    AReach.Stage := Contour.GetFloatParameter(CurrentModelHandle,StageIndicies[StressPeriodIndex]);
                    if ShowWarnings then
                    begin
                      if AReach.Stage > Top then
                      begin
                        RiverErrors.Add(Format
                          ('[%d, %d] Elevation > top of unit', [AReach.Row, AReach.Column]));
                      end;
                      if AReach.Stage < Bottom then
                      begin
                        RiverErrors.Add(Format
                          ('[%d, %d] Elevation < bottom of unit', [AReach.Row, AReach.Column]));
                      end;
                    end;
                    AReach.Layer := frmModflow.ModflowLayer(UnitIndex, Top, Bottom, AReach.Stage);
                    if frmMODFLOW.cbMOC3D.Checked then
                    begin
                      AReach.Concentration := Contour.GetFloatParameter
                        (CurrentModelHandle,ConcentrationIndicies[StressPeriodIndex]);
                    end;
                    if ModflowTypes.GetMFPointRiverLayerType.UseIFACE then
                    begin
                      AReach.IFACE := Contour.GetIntegerParameter
                        (CurrentModelHandle,IFACEIndicies[StressPeriodIndex]);
                    end;
                    if frmMODFLOW.cbMT3D.Checked then
                    begin
                      for SpeciesIndex := 1 to SpeciesCount do
                      begin
                        AReach.MT3DConcentrations[SpeciesIndex-1] :=
                          Contour.GetFloatParameter(CurrentModelHandle,
                          MT3DConcentrationIndicies
                            [StressPeriodIndex, SpeciesIndex-1]);
                      end;
                    end;
                    AddParameterNameCell(ParameterName,AReach,StressPeriodIndex);
                  end;
//                  end
                end
                else
                begin
                  for StressPeriodIndex := 0 to StressPeriodCount-1 do
                  begin
                    if not ContinueExport then break;
                    Application.ProcessMessages;
                    Used := Contour.GetBoolParameter(CurrentModelHandle,
                      IsOnIndicies[StressPeriodIndex]);
                    if Used then
                    begin
                      AReach.CondFact := Conductance;
                    end
                    else
                    begin
                      AReach.CondFact := 0;
                    end;
                    AReach.Stage := Contour.GetFloatParameter(CurrentModelHandle,
                      StageIndicies[StressPeriodIndex]);
                    if ShowWarnings then
                    begin
                      if AReach.Stage > Top then
                      begin
                        RiverErrors.Add(Format
                          ('[%d, %d] Elevation > top of unit', [AReach.Row, AReach.Column]));
                      end;
                      if AReach.Stage < Bottom then
                      begin
                        RiverErrors.Add(Format
                          ('[%d, %d] Elevation < bottom of unit', [AReach.Row, AReach.Column]));
                      end;
                    end;
                    AReach.Layer := frmModflow.ModflowLayer(UnitIndex, Top, Bottom, AReach.Stage);
                    if frmMODFLOW.cbMOC3D.Checked then
                    begin
                      AReach.Concentration := Contour.GetFloatParameter
                        (CurrentModelHandle,ConcentrationIndicies[StressPeriodIndex]);
                    end;
                    if ModflowTypes.GetMFPointRiverLayerType.UseIFACE then
                    begin
                      AReach.IFACE := Contour.GetIntegerParameter
                        (CurrentModelHandle,IFACEIndicies[StressPeriodIndex]);
                    end;
                      if frmMODFLOW.cbMT3D.Checked then
                      begin
                        for SpeciesIndex := 1 to SpeciesCount do
                        begin
                          AReach.MT3DConcentrations[SpeciesIndex-1] :=
                            Contour.GetFloatParameter(CurrentModelHandle,
                            MT3DConcentrationIndicies
                              [StressPeriodIndex, SpeciesIndex-1]);
                        end;
                      end;
                    ReachList := ReachTimes[StressPeriodIndex];
                    ReachList.Add(AReach);
//                    end;
                  end;
                end;
              end;
            end;
          finally
            Contour.Free;
          end;

        end;
      end;
    finally
      RiverLayer.Free(CurrentModelHandle);
    end;
    if RiverErrors.Count > 0 then
    begin
      AString := 'Warning: Some point river stages extend outside of the geologic '
        + 'unit in unit '
        + IntToStr(UnitIndex) + '.';
      frmProgress.reErrors.Lines.Add(AString);
      ErrorMessages.Add('');
      ErrorMessages.Add(AString);

      AString := 'Rivers below the bottom of the unit will be treated as if they '
        + 'are at the bottom of the unit for the purposes of determining in which '
        + 'layer within the unit the river belongs.';
      frmProgress.reErrors.Lines.Add(AString);
      ErrorMessages.Add(AString);

      AString := 'Rivers above the top of the unit will be treated as if they '
        + 'are at the top of the unit for the purposes of determining in which '
        + 'layer within the unit the river belongs.';
      frmProgress.reErrors.Lines.Add(AString);
      ErrorMessages.Add(AString);

      AString := '[Row, Col]';
      ErrorMessages.Add(AString);
      ErrorMessages.AddStrings(RiverErrors);
    end;
  finally
    RiverErrors.Free;
  end;
end;

procedure TRiverPkgWriter.EvaluateLineRiverLayer(const
  CurrentModelHandle: ANE_PTR; UnitIndex : integer;
  ProjectOptions : TProjectOptions; Discretization : TDiscretizationWriter);
var
  LayerName : string;
  LayerHandle : ANE_PTR;
  RiverLayer : TLayerOptions;
  GridLayer : TLayerOptions;
  IsParamIndex : ANE_INT16;
  ParamNameIndex : ANE_INT16;
  ConductanceIndex : ANE_INT16;
  RBOT_Index : ANE_INT16;
  CellGroupIndex : ANE_INT16;
  TimeIndex : integer;
  TimeParamName : string;
  StageIndicies : array of Integer;
  ConcentrationIndicies : array of Integer;
  MT3DConcentrationIndicies : array of array of Integer;
  IFACEIndicies : array of Integer;
  IsOnIndicies : array of Integer;
  MT3DConcentrationNames : array of array of string;
  ContourCount : integer;
  ContourIndex : integer;
  Contour : TContourObjectOptions;
  IsParam : boolean;
  ParameterName : string;
  AReach : TReachRecord;
  CellIndex : integer;
  Top, Bottom : double;
  StressPeriodCount : integer;
  StressPeriodIndex : integer;
  ReachList : TReachList;
  ContourConductance : double;
  ContourLength : double;
  BlockIndex : integer;
  ABlock : TBlockObjectOptions;
  X, Y : ANE_DOUBLE;
  IsParamName, ParamName, ConductanceName, RBotName, CellGroupName: string;
  StageNames : TStringList;
  ConcentrationNames : TStringList;
  IFACENames : TStringList;
  Used : boolean;
  RiverErrors : TStringList;
  AString : string;
  Conductance : double;
  InstanceLimit : integer;
  SpeciesIndex : integer;
  SpeciesCount : integer;
  ThicknessIndex : ANE_INT16;
  ThicknessName: string;
  FluidDensityIndex: ANE_INT16;
  FluidDensityName: string;
begin
  // line rivers
  IsParam := False;
  SpeciesCount := 0;
  SetLength(AReach.MT3DConcentrations, 0);
  AReach.Stage := 0;
  AReach.CondFact := 0;
  AReach.RBot := 0;
  AReach.IFACE := 0;
  AReach.Concentration := 0;
  RiverErrors := TStringList.Create;
  try
    StressPeriodCount := frmModflow.dgTime.RowCount -1;
    if frmMODFLOW.comboRivSteady.ItemIndex = 0 then
    begin
      StressPeriodCount := 1;
    end;
    SetLength(StageIndicies,StressPeriodCount);
    SetLength(IsOnIndicies,StressPeriodCount);
    if frmMODFLOW.cbMOC3D.Checked then
    begin
      SetLength(ConcentrationIndicies,StressPeriodCount);
    end;
    if ModflowTypes.GetMFLineRiverLayerType.UseIFACE then
    begin
      SetLength(IFACEIndicies,StressPeriodCount);
    end;
    if frmMODFLOW.cbMT3D.Checked then
    begin
      SpeciesCount := StrToInt(frmModflow.adeMT3DNCOMP.Text);
      SetLength(MT3DConcentrationIndicies,StressPeriodCount, SpeciesCount);
      SetLength(AReach.MT3DConcentrations, SpeciesCount);
      SetLength(MT3DConcentrationNames,StressPeriodCount, SpeciesCount);
    end;

    LayerName := ModflowTypes.GetMFLineRiverLayerType.WriteNewRoot
      + IntToStr(UnitIndex);
    AddVertexLayer(CurrentModelHandle,LayerName);
    LayerHandle :=  ProjectOptions.GetLayerByName(CurrentModelHandle,LayerName);
    RiverLayer := TLayerOptions.Create(LayerHandle);
    GridLayer := TLayerOptions.Create(Discretization.GridLayerHandle);
    StageNames := TStringList.Create;
    ConcentrationNames := TStringList.Create;
    IFACENames := TStringList.Create;
    try
      ContourCount := RiverLayer.NumObjects(CurrentModelHandle,pieContourObject);
      if ContourCount > 0 then
      begin
        GetParamIndicies(IsParamIndex, ParamNameIndex, ConductanceIndex,
          RBOT_Index, CellGroupIndex, ThicknessIndex, FluidDensityIndex,
          IsParamName, ParamName, ConductanceName, RBotName, CellGroupName,
          ThicknessName, FluidDensityName,
          CurrentModelHandle, RiverLayer, False);

        for TimeIndex := 1 to StressPeriodCount do
        begin
          if not ContinueExport then break;
          Application.ProcessMessages;

          TimeParamName := ModflowTypes.GetMFRiverStageParamType.WriteParamName
            + IntToStr(TimeIndex);
          StageNames.Add(TimeParamName);
          StageIndicies[TimeIndex -1] := RiverLayer.GetParameterIndex
            (CurrentModelHandle, TimeParamName);

          TimeParamName := ModflowTypes.GetMFOnOffParamType.WriteParamName
            + IntToStr(TimeIndex);
          IsOnIndicies[TimeIndex -1] := RiverLayer.GetParameterIndex
            (CurrentModelHandle, TimeParamName);

          if frmMODFLOW.cbMOC3D.Checked then
          begin
            TimeParamName := ModflowTypes.GetMFConcentrationParamType.WriteParamName
              + IntToStr(TimeIndex);
            ConcentrationNames.Add(TimeParamName);
            ConcentrationIndicies[TimeIndex -1] := RiverLayer.GetParameterIndex
              (CurrentModelHandle, TimeParamName);
          end; // if frmMODFLOW.cbMOC3D.Checked then
          if ModflowTypes.GetMFLineRiverLayerType.UseIFACE then
          begin
            TimeParamName := ModflowTypes.GetMFIFACEParamType.WriteParamName
              + IntToStr(TimeIndex);
            IFACENames.Add(TimeParamName);
            IFACEIndicies[TimeIndex -1] := RiverLayer.GetParameterIndex
              (CurrentModelHandle, TimeParamName);
          end; //  if frmMODFLOW.cbMODPATH.Checked then
          if frmMODFLOW.cbMT3D.Checked then
          begin
            for SpeciesIndex := 1 to SpeciesCount do
            begin
              case SpeciesIndex of
                1: TimeParamName := ModflowTypes.GetMFConcentrationParamType.ANE_ParamName;
                2: TimeParamName := ModflowTypes.GetMT3DConc2ParamClassType.ANE_ParamName;
                3: TimeParamName := ModflowTypes.GetMT3DConc3ParamClassType.ANE_ParamName;
                4: TimeParamName := ModflowTypes.GetMT3DConc4ParamClassType.ANE_ParamName;
                5: TimeParamName := ModflowTypes.GetMT3DConc5ParamClassType.ANE_ParamName;
              else Assert(False);
              end;
              TimeParamName := TimeParamName + IntToStr(TimeIndex);
              MT3DConcentrationNames[TimeIndex -1, SpeciesIndex-1] := TimeParamName;
              MT3DConcentrationIndicies[TimeIndex -1, SpeciesIndex-1]
                := RiverLayer.GetParameterIndex(CurrentModelHandle, TimeParamName);
            end;
          end;
        end; // for TimeIndex := 1 to StressPeriodCount do

        frmProgress.pbActivity.Max := ContourCount;
        for ContourIndex := 0 to ContourCount -1 do
        begin
          if not ContinueExport then break;
          frmProgress.pbActivity.StepIt;
          Application.ProcessMessages;
          Contour := TContourObjectOptions.Create
            (CurrentModelHandle,LayerHandle,ContourIndex);
          try
            if Contour.ContourType(CurrentModelHandle) <> ctOpen then
            begin
              Inc(LineErrors);
            end
            else
            begin
              if not frmMODFLOW.cbAltRiv.Checked then
              begin
                ContourConductance := Contour.GetFloatParameter(CurrentModelHandle,ConductanceIndex);
                AReach.RBot := Contour.GetFloatParameter(CurrentModelHandle,RBOT_Index);
                IsParam := Contour.GetBoolParameter(CurrentModelHandle,IsParamIndex);
                if IsParam then
                begin
                  ParameterName := Contour.GetStringParameter
                    (CurrentModelHandle,ParamNameIndex);
                  InstanceLimit := GetParameterInstanceCount(ParameterName);
                end; // if IsParam then
                AReach.CellGroupNumber := Contour.GetIntegerParameter