unit WriteFHBUnit;

interface

uses Sysutils, Classes, Forms, ANEPIE, WriteModflowDiscretization, OptionsUnit,
  CopyArrayUnit, WriteBFLX_Unit;

type
  TBoundaryType = (btHead, btFlux);

  TFHBRecord = record
    Layer, Row, Column: integer;
    IAUX: integer;
    MT3D_Concentrations: T2DDoubleArray; // [StressPeriod, Species]
  end;

  TFHBList = class(TList)
    procedure Clear; override;
  end;

  TFHBPkgWriter = class(TListWriter)
  private
    FHBList: TFHBList;
    HeadErrors: TStringList;
    FluxErrors: TStringList;
    PointErrors, LineErrors, AreaErrors: integer;
    procedure EvaluateDataSets5to8(const CurrentModelHandle: ANE_PTR;
      Discretization: TDiscretizationWriter);
    procedure EvaluatePointFHBLayer(const CurrentModelHandle: ANE_PTR;
      UnitIndex: integer; ProjectOptions: TProjectOptions;
      Discretization: TDiscretizationWriter);
    procedure EvaluateLineFHBLayer(const CurrentModelHandle: ANE_PTR;
      UnitIndex: integer; ProjectOptions: TProjectOptions;
      Discretization: TDiscretizationWriter);
    procedure EvaluateAreaFHBLayer(const CurrentModelHandle: ANE_PTR;
      UnitIndex: integer; ProjectOptions: TProjectOptions;
      Discretization: TDiscretizationWriter);
    procedure GetParamIndicies(var FHBTopIndex, FHBBottomIndex, IFACE_Index:
      ANE_INT16; var FHBTopName, FHBBottomName, IFACE_Name: string; const
      CurrentModelHandle: ANE_PTR; FHBLayer: TLayerOptions);
    procedure WriteDataSets1to3(FlowList, HeadList: TList);
    procedure WriteDataSet4;
    procedure WriteDataSet5or7(List: TList; DataSet: integer);
    procedure WriteHeader(DataSet: integer);
    procedure WriteDataSet6or8(List: TList; DataSet: integer);
    procedure WriteErrors;
  public
    constructor Create;
    destructor Destroy; override;
    procedure Evaluate(
      const CurrentModelHandle: ANE_PTR; Discretization: TDiscretizationWriter);
    procedure RecordIFACE(const BFLX_Writer: TBFLX_Writer);
    procedure WriteFile(
      const CurrentModelHandle: ANE_PTR; Root: string;
      Discretization: TDiscretizationWriter);
    procedure WriteMT3DConcentrations(const StressPeriod: integer;
      const Lines: TStrings);
    class procedure AssignUnitNumbers;
  end;

  TFHB_Cell = class(TObject)
  private
    FHB_Record: TFHBRecord;
    Values: array of double;
    Concentrations: array of double;
    Count: integer;
    BoundaryType: TBoundaryType;
    procedure WriteFHB_Cell(FHBWriter: TFHBPkgWriter);
    procedure WriteConcentations(FHBWriter: TFHBPkgWriter);
    procedure WriteMT3DConcentrations(const StressPeriod: integer;
      const Lines: TStrings);
  public
    constructor Create(A_FHB_Record: TFHBRecord; ValueCount: integer);

  end;

implementation

uses Variables, ModflowUnit, ProgressUnit, InitializeBlockUnit,
  InitializeVertexUnit, BlockListUnit, GetCellUnit, ModflowLayerFunctions,
  BL_SegmentUnit, GridUnit, PointInsideContourUnit, WriteNameFileUnit,
  GetFractionUnit, UnitNumbers, UtilityFunctions, MFFlowAndHeadBound;

const
  CNSTM: double = 1;
  IFHBPT: integer = 1;

  { TFHBPkgWriter }

procedure TFHBPkgWriter.WriteErrors;
var
  ErrorString: string;
begin
  if HeadErrors.Count > 0 then
  begin
    ErrorString :=
      'Error: Boundary type changed from Head to Flux in FHB package.';
    frmProgress.reErrors.Lines.Add(ErrorString);

    ErrorString := ErrorString + ' [Unit, Row, Column, Stress Period]';
    ErrorMessages.Add('');
    ErrorMessages.Add(ErrorString);
    ErrorMessages.AddStrings(HeadErrors);
  end;
  if FluxErrors.Count > 0 then
  begin
    ErrorString :=
      'Error: Boundary type changed from Flux to Head in FHB package.';
    frmProgress.reErrors.Lines.Add(ErrorString);

    ErrorString := ErrorString + ' [Unit, Row, Column, Stress Period]';
    ErrorMessages.Add('');
    ErrorMessages.Add(ErrorString);
    ErrorMessages.AddStrings(FluxErrors);
  end;
end;

procedure TFHBPkgWriter.GetParamIndicies(var FHBTopIndex, FHBBottomIndex,
  IFACE_Index: ANE_INT16; var FHBTopName, FHBBottomName, IFACE_Name: string;
  const CurrentModelHandle: ANE_PTR; FHBLayer: TLayerOptions);
begin
  FHBTopName := ModflowTypes.GetMFFHBTopElevParamType.WriteParamName;
  FHBTopIndex := FHBLayer.GetParameterIndex(CurrentModelHandle, FHBTopName);

  FHBBottomName := ModflowTypes.GetMFFHBBotElevParamType.WriteParamName;
  FHBBottomIndex := FHBLayer.GetParameterIndex(CurrentModelHandle,
    FHBBottomName);

  if TCustomFHBLayer.UseIFACE then
  begin
    IFACE_Name := ModflowTypes.GetMFIFACEParamType.WriteParamName;
    IFACE_Index := FHBLayer.GetParameterIndex(CurrentModelHandle,
      IFACE_Name);
  end
  else
  begin
    IFACE_Name := '';
    IFACE_Index := -1;
  end;
end;

procedure TFHBPkgWriter.EvaluatePointFHBLayer(const
  CurrentModelHandle: ANE_PTR; UnitIndex: integer;
  ProjectOptions: TProjectOptions; Discretization: TDiscretizationWriter);
var
  LayerName: string;
  LayerHandle: ANE_PTR;
  FHBLayer: TLayerOptions;
  TopIndex: ANE_INT16;
  BottomIndex: ANE_INT16;
  IFACE_Index: ANE_INT16;
  IFACE_Name: string;
  TimeIndex: integer;
  TimeParamName: string;
  HeadIndicies: array of Integer;
  FluxIndicies: array of Integer;
  BoundaryTypeIndicies: array of Integer;
  HeadConcentrationIndicies: array of Integer;
  FluxConcentrationIndicies: array of Integer;
  IFACEIndex: Integer;
  ContourCount: integer;
  ContourIndex: integer;
  Contour: TContourObjectOptions;
  ParameterName: string;
  A_FHB_Cell: TFHBRecord;
  CellIndex: integer;
  Top, Bottom, LayerTop, LayerBottom: double;
  StressPeriodCount: integer;
  StressPeriodIndex: integer;
  //  FHBList : TFHBList;
  FHBTopName, FHBBottomName: string;
  Used: boolean;
  BoundaryType, PreviousBoundaryType: integer;
  FHBTop, FHBBottom: double;
  StartLayer, EndLayer: integer;
  LayerIndex: integer;
  FHB_Cell: TFHB_Cell;
  AValue: double;
  LayersPerUnit: integer;
  Fraction: double;
  Mt3DStressPeriodCount, SpeciesCount: integer;
  MT3DSpeciesIndicies: array of array of integer;
  SpeciesIndex: integer;
begin
  // point FHB boundaries
  Fraction := 0;
  PreviousBoundaryType := 0;
  SpeciesCount := 0;
  A_FHB_Cell.IAUX := 0;

  StressPeriodCount := frmModflow.sgFHBTimes.RowCount - 1;
  if frmMODFLOW.comboFHBSteadyStateOption.ItemIndex = 0 then
  begin
    StressPeriodCount := 1;
  end;
  SetLength(HeadIndicies, StressPeriodCount);
  SetLength(FluxIndicies, StressPeriodCount);
  SetLength(BoundaryTypeIndicies, StressPeriodCount);
  if frmMODFLOW.cbMOC3D.Checked then
  begin
    SetLength(HeadConcentrationIndicies, StressPeriodCount);
    SetLength(FluxConcentrationIndicies, StressPeriodCount);
  end;
  if frmModflow.cbMT3D.Checked then
  begin
    Mt3DStressPeriodCount := frmModflow.dgTime.RowCount - 1;
    if frmMODFLOW.comboFHBSteadyStateOption.ItemIndex = 0 then
    begin
      Mt3DStressPeriodCount := 1;
    end;
    SpeciesCount := StrToInt(frmModflow.adeMT3DNCOMP.Text);
    SetLength(A_FHB_Cell.MT3D_Concentrations, Mt3DStressPeriodCount,
      SpeciesCount);
    SetLength(MT3DSpeciesIndicies, Mt3DStressPeriodCount, SpeciesCount);
  end;

  LayerName := ModflowTypes.GetMFPointFHBLayerType.WriteNewRoot
    + IntToStr(UnitIndex);
  AddVertexLayer(CurrentModelHandle, LayerName);
  LayerHandle := ProjectOptions.GetLayerByName(CurrentModelHandle, LayerName);
  FHBLayer := TLayerOptions.Create(LayerHandle);
  try
    ContourCount := FHBLayer.NumObjects(CurrentModelHandle, pieContourObject);
    if ContourCount > 0 then
    begin
      GetParamIndicies(TopIndex, BottomIndex, IFACE_Index,
        FHBTopName, FHBBottomName, IFACE_Name,
        CurrentModelHandle, FHBLayer);

      for TimeIndex := 1 to StressPeriodCount do
      begin
        if not ContinueExport then
          break;
        Application.ProcessMessages;

        TimeParamName :=
          ModflowTypes.GetMFFHBPointAreaHeadParamType.WriteParamName
          + IntToStr(TimeIndex);
        HeadIndicies[TimeIndex - 1] := FHBLayer.GetParameterIndex
          (CurrentModelHandle, TimeParamName);

        TimeParamName := ModflowTypes.GetMFFHBPointFluxParamType.WriteParamName
          + IntToStr(TimeIndex);
        FluxIndicies[TimeIndex - 1] := FHBLayer.GetParameterIndex
          (CurrentModelHandle, TimeParamName);

        TimeParamName :=
          ModflowTypes.GetMFFHBPointBoundaryTypeParamType.WriteParamName
          + IntToStr(TimeIndex);
        BoundaryTypeIndicies[TimeIndex - 1] := FHBLayer.GetParameterIndex
          (CurrentModelHandle, TimeParamName);

        if frmMODFLOW.cbMOC3D.Checked then
        begin
          TimeParamName := ModflowTypes.GetMFFHBHeadConcParamType.WriteParamName
            + IntToStr(TimeIndex);
          HeadConcentrationIndicies[TimeIndex - 1] := FHBLayer.GetParameterIndex
            (CurrentModelHandle, TimeParamName);

          TimeParamName := ModflowTypes.GetMFFHBFluxConcParamType.WriteParamName
            + IntToStr(TimeIndex);
          FluxConcentrationIndicies[TimeIndex - 1] := FHBLayer.GetParameterIndex
            (CurrentModelHandle, TimeParamName);
        end;
      end;
      if frmModflow.cbMT3D.Checked then
      begin
        for TimeIndex := 1 to Mt3DStressPeriodCount do
        begin
          for SpeciesIndex := 1 to SpeciesCount do
          begin
            case SpeciesIndex of
              1:
                begin
                  TimeParamName :=
                    ModflowTypes.GetMT3DConcentrationParamClassType.Ane_ParamName;
                end;
              2:
                begin
                  TimeParamName :=
                    ModflowTypes.GetMT3DConc2ParamClassType.Ane_ParamName;
                end;
              3:
                begin
                  TimeParamName :=
                    ModflowTypes.GetMT3DConc3ParamClassType.Ane_ParamName;
                end;
              4:
                begin
                  TimeParamName :=
                    ModflowTypes.GetMT3DConc4ParamClassType.Ane_ParamName;
                end;
              5:
                begin
                  TimeParamName :=
                    ModflowTypes.GetMT3DConc5ParamClassType.Ane_ParamName;
                end;
            else
              Assert(False);
            end;
            TimeParamName := TimeParamName + IntToStr(TimeIndex);
            MT3DSpeciesIndicies[TimeIndex - 1, SpeciesIndex - 1] :=
              FHBLayer.GetParameterIndex
              (CurrentModelHandle, TimeParamName);
          end;
        end;
      end;

      frmProgress.pbActivity.Max := ContourCount;
      for ContourIndex := 0 to ContourCount - 1 do
      begin
        frmProgress.pbActivity.StepIt;
        if not ContinueExport then
          break;
        Application.ProcessMessages;
        Contour := TContourObjectOptions.Create
          (CurrentModelHandle, LayerHandle, ContourIndex);
        try
          if Contour.NumberOfNodes(CurrentModelHandle) <> 1 then
          begin
            Inc(PointErrors);
          end
          else
          begin
            FHBTop := Contour.GetFloatParameter(CurrentModelHandle, TopIndex);
            FHBBottom := Contour.GetFloatParameter(CurrentModelHandle,
              BottomIndex);
            if TCustomFHBLayer.UseIFACE then
            begin
              A_FHB_Cell.IAUX := Contour.GetIntegerParameter(CurrentModelHandle,
                IFACE_Index);
            end;

            LayersPerUnit := frmModflow.DiscretizationCount(UnitIndex);

            for CellIndex := 0 to GGetCountOfACellList(ContourIndex) - 1 do
            begin
              if not ContinueExport then
                break;
              Application.ProcessMessages;
              A_FHB_Cell.Row := GGetCellRow(ContourIndex, CellIndex);
              A_FHB_Cell.Column := GGetCellColumn(ContourIndex, CellIndex);
              Top := Discretization.Elevations[A_FHB_Cell.Column - 1,
                A_FHB_Cell.Row - 1, UnitIndex - 1];
              Bottom := Discretization.Elevations[A_FHB_Cell.Column - 1,
                A_FHB_Cell.Row - 1, UnitIndex];

              StartLayer := frmModflow.ModflowLayer(UnitIndex, Top, Bottom, FHBTop);
              EndLayer := frmModflow.ModflowLayer(UnitIndex, Top, Bottom, FHBBottom);

              for LayerIndex := StartLayer to EndLayer do
              begin
                A_FHB_Cell.Layer := LayerIndex;
                FHB_Cell := TFHB_Cell.Create(A_FHB_Cell, StressPeriodCount);
                FHBList.Add(FHB_Cell);
                for StressPeriodIndex := 0 to StressPeriodCount - 1 do
                begin
                  if not ContinueExport then
                    break;
                  Application.ProcessMessages;
                  BoundaryType :=
                    Contour.GetIntegerParameter(CurrentModelHandle,
                    BoundaryTypeIndicies[StressPeriodIndex]);
                  Used := BoundaryType <> 0;
                  if Used then
                  begin
                    if BoundaryType = 1 then
                    begin
                      if StressPeriodIndex = 0 then
                      begin
                        FHB_Cell.BoundaryType := btHead;
                        PreviousBoundaryType := BoundaryType;
                      end
                      else
                      begin
                        if PreviousBoundaryType <> BoundaryType then
                        begin
                          HeadErrors.Add(Format('[%d, %d, %d, %d]', [UnitIndex,
                            A_FHB_Cell.Row, A_FHB_Cell.Column, StressPeriodIndex
                              + 1]));
                        end;
                      end;
                      FHB_Cell.Values[StressPeriodIndex] :=
                        Contour.GetFloatParameter(CurrentModelHandle,
                        HeadIndicies[StressPeriodIndex]);
                    end
                    else
                    begin
                      if StressPeriodIndex = 0 then
                      begin
                        FHB_Cell.BoundaryType := btFlux;
                        PreviousBoundaryType := BoundaryType;
                        Fraction := frmModflow.FractionForLayer(Top, Bottom,
                          FHBTop, FHBBottom, UnitIndex, LayerIndex);
                      end
                      else
                      begin
                        if PreviousBoundaryType <> BoundaryType then
                        begin
                          FluxErrors.Add(Format('[%d, %d, %d, %d]', [UnitIndex,
                            A_FHB_Cell.Row, A_FHB_Cell.Column, StressPeriodIndex
                              + 1]));
                        end;
                      end;
                      AValue := Contour.GetFloatParameter(CurrentModelHandle,
                        FluxIndicies[StressPeriodIndex]);

                      FHB_Cell.Values[StressPeriodIndex] := AValue * Fraction;
                    end;

                    if frmMODFLOW.cbMOC3D.Checked then
                    begin
                      if BoundaryType = 1 then
                      begin
                        FHB_Cell.Concentrations[StressPeriodIndex] :=
                          Contour.GetFloatParameter(CurrentModelHandle,
                          HeadConcentrationIndicies[StressPeriodIndex]);
                      end
                      else
                      begin
                        FHB_Cell.Concentrations[StressPeriodIndex] :=
                          Contour.GetFloatParameter(CurrentModelHandle,
                          FluxConcentrationIndicies[StressPeriodIndex]);
                      end;
                    end;

                  end;
                end;
                if frmModflow.cbMT3D.Checked then
                begin
                  for StressPeriodIndex := 0 to Mt3DStressPeriodCount - 1 do
                  begin
                    if not ContinueExport then
                      break;
                    Application.ProcessMessages;
                    for SpeciesIndex := 0 to SpeciesCount - 1 do
                    begin
                      if not ContinueExport then
                        break;
                      Application.ProcessMessages;
                      FHB_Cell.FHB_Record.MT3D_Concentrations[StressPeriodIndex,
                        SpeciesIndex]
                        := Contour.GetFloatParameter(CurrentModelHandle,
                        MT3DSpeciesIndicies[StressPeriodIndex, SpeciesIndex]);
                    end;
                  end;
                end;
              end;
            end;
          end;
        finally
          Contour.Free;
        end;
      end;
    end;
  finally
    FHBLayer.Free(CurrentModelHandle);
  end;
end;

procedure TFHBPkgWriter.EvaluateLineFHBLayer(const
  CurrentModelHandle: ANE_PTR; UnitIndex: integer;
  ProjectOptions: TProjectOptions; Discretization: TDiscretizationWriter);
var
  LayerName: string;
  LayerHandle: ANE_PTR;
  FHBLayer: TLayerOptions;
  GridLayer: TLayerOptions;
  TopIndex, BottomIndex, IFACE_Index: ANE_INT16;
  TimeIndex: integer;
  TimeParamName: string;
  StartHeadIndicies: array of Integer;
  EndHeadIndicies: array of Integer;
  FluxIndicies: array of Integer;
  BoundaryTypeIndicies: array of Integer;
  HeadConcentrationIndicies: array of Integer;
  FluxConcentrationIndicies: array of Integer;
  EndHeadUsedIndicies: array of Integer;
  ContourCount: integer;
  ContourIndex: integer;
  Contour: TContourObjectOptions;
  ParameterName: string;
  A_FHB_Cell: TFHBRecord;
  CellIndex: integer;
  Top, Bottom: double;
  StressPeriodCount: integer;
  StressPeriodIndex: integer;
  ContourConductance: double;
  ContourLength: double;
  BlockIndex: integer;
  ABlock: TBlockObjectOptions;
  X, Y: ANE_DOUBLE;
  FHBTopName, FHBBottomName, IFACE_Name: string;
  StartHeadNames, EndHeadNames, FluxNames: TStringList;
  BoundaryTypeNames, EndHeadUsedNames: TStringList;
  //  HeadConcentrationNames : TStringList;
  //  FluxConcentrationNames : TStringList;
  Used: boolean;
  FHBTop, FHBBottom: double;
  BoundaryType, PreviousBoundaryType: integer;
  StartHead, EndHead: double;
  LineFraction: double;
  EndHeadUsed: boolean;
  LayerIndex, StartLayer, EndLayer: integer;
  FHB_Cell: TFHB_Cell;
  BottomElevationsErrors, TopElevationErrors: TStringList;
  AString: string;
  Fraction: double;
  Mt3DStressPeriodCount, SpeciesCount: integer;
  MT3DSpeciesIndicies: array of array of integer;
  //  MT3DSpeciesNames : array of array of string;
  SpeciesIndex: integer;
begin
  SpeciesCount := 0;
  PreviousBoundaryType := 0;
  Fraction := 0;
  TopElevationErrors := TStringList.Create;
  BottomElevationsErrors := TStringList.Create;
  try

    // line FHB boundaries
    A_FHB_Cell.IAUX := 0;
    StressPeriodCount := frmModflow.sgFHBTimes.RowCount - 1;
    if frmMODFLOW.comboFHBSteadyStateOption.ItemIndex = 0 then
    begin
      StressPeriodCount := 1;
    end;
    SetLength(StartHeadIndicies, StressPeriodCount);
    SetLength(EndHeadIndicies, StressPeriodCount);
    SetLength(EndHeadUsedIndicies, StressPeriodCount);
    SetLength(FluxIndicies, StressPeriodCount);
    SetLength(BoundaryTypeIndicies, StressPeriodCount);
    if frmMODFLOW.cbMOC3D.Checked then
    begin
      SetLength(HeadConcentrationIndicies, StressPeriodCount);
      SetLength(FluxConcentrationIndicies, StressPeriodCount);
    end;
    if frmModflow.cbMT3D.Checked then
    begin
      Mt3DStressPeriodCount := frmModflow.dgTime.RowCount - 1;
      if frmMODFLOW.comboFHBSteadyStateOption.ItemIndex = 0 then
      begin
        Mt3DStressPeriodCount := 1;
      end;
      SpeciesCount := StrToInt(frmModflow.adeMT3DNCOMP.Text);
      SetLength(A_FHB_Cell.MT3D_Concentrations, Mt3DStressPeriodCount,
        SpeciesCount);
      SetLength(MT3DSpeciesIndicies, Mt3DStressPeriodCount, SpeciesCount);
    end;

    LayerName := ModflowTypes.GetMFLineFHBLayerType.WriteNewRoot
      + IntToStr(UnitIndex);
    AddVertexLayer(CurrentModelHandle, LayerName);
    LayerHandle := ProjectOptions.GetLayerByName(CurrentModelHandle, LayerName);
    FHBLayer := TLayerOptions.Create(LayerHandle);
    GridLayer := TLayerOptions.Create(Discretization.GridLayerHandle);
    StartHeadNames := TStringList.Create;
    EndHeadNames := TStringList.Create;
    FluxNames := TStringList.Create;
    BoundaryTypeNames := TStringList.Create;
    EndHeadUsedNames := TStringList.Create;

    try
      ContourCount := FHBLayer.NumObjects(CurrentModelHandle, pieContourObject);
      if ContourCount > 0 then
      begin
        GetParamIndicies(TopIndex, BottomIndex, IFACE_Index,
          FHBTopName, FHBBottomName, IFACE_Name,
          CurrentModelHandle, FHBLayer);

        for TimeIndex := 1 to StressPeriodCount do
        begin
          if not ContinueExport then
            break;
          Application.ProcessMessages;

          TimeParamName :=
            ModflowTypes.GetMFFHBLineHeadStartParamType.WriteParamName
            + IntToStr(TimeIndex);
          StartHeadNames.Add(TimeParamName);
          StartHeadIndicies[TimeIndex - 1] := FHBLayer.GetParameterIndex
            (CurrentModelHandle, TimeParamName);

          TimeParamName :=
            ModflowTypes.GetMFFHBLineHeadEndParamType.WriteParamName
            + IntToStr(TimeIndex);
          EndHeadNames.Add(TimeParamName);
          EndHeadIndicies[TimeIndex - 1] := FHBLayer.GetParameterIndex
            (CurrentModelHandle, TimeParamName);

          TimeParamName := ModflowTypes.GetMFFHBLineFluxParamType.WriteParamName
            + IntToStr(TimeIndex);
          FluxNames.Add(TimeParamName);
          FluxIndicies[TimeIndex - 1] := FHBLayer.GetParameterIndex
            (CurrentModelHandle, TimeParamName);

          TimeParamName :=
            ModflowTypes.GetMFFHBLineBoundaryTypeParamType.WriteParamName
            + IntToStr(TimeIndex);
          BoundaryTypeNames.Add(TimeParamName);
          BoundaryTypeIndicies[TimeIndex - 1] := FHBLayer.GetParameterIndex
            (CurrentModelHandle, TimeParamName);

          TimeParamName :=
            ModflowTypes.GetMFFHBEndHeadUsedParamType.WriteParamName
            + IntToStr(TimeIndex);
          EndHeadUsedNames.Add(TimeParamName);
          EndHeadUsedIndicies[TimeIndex - 1] := FHBLayer.GetParameterIndex
            (CurrentModelHandle, TimeParamName);

          if frmMODFLOW.cbMOC3D.Checked then
          begin
            TimeParamName :=
              ModflowTypes.GetMFFHBHeadConcParamType.WriteParamName
              + IntToStr(TimeIndex);
            //            HeadConcentrationNames.Add(TimeParamName);
            HeadConcentrationIndicies[TimeIndex - 1] :=
              FHBLayer.GetParameterIndex
              (CurrentModelHandle, TimeParamName);

            TimeParamName :=
              ModflowTypes.GetMFFHBFluxConcParamType.WriteParamName
              + IntToStr(TimeIndex);
            //            FluxConcentrationNames.Add(TimeParamName);
            FluxConcentrationIndicies[TimeIndex - 1] :=
              FHBLayer.GetParameterIndex
              (CurrentModelHandle, TimeParamName);
          end; // if frmMODFLOW.cbMOC3D.Checked then

        end; // for TimeIndex := 1 to StressPeriodCount do
        if frmModflow.cbMT3D.Checked then
        begin
          for TimeIndex := 1 to Mt3DStressPeriodCount do
          begin
            for SpeciesIndex := 1 to SpeciesCount do
            begin
              case SpeciesIndex of
                1:
                  begin
                    TimeParamName :=
                      ModflowTypes.GetMT3DConcentrationParamClassType.Ane_ParamName;
                  end;
                2:
                  begin
                    TimeParamName :=
                      ModflowTypes.GetMT3DConc2ParamClassType.Ane_ParamName;
                  end;
                3:
                  begin
                    TimeParamName :=
                      ModflowTypes.GetMT3DConc3ParamClassType.Ane_ParamName;
                  end;
                4:
                  begin
                    TimeParamName :=
                      ModflowTypes.GetMT3DConc4ParamClassType.Ane_ParamName;
                  end;
                5:
                  begin
                    TimeParamName :=
                      ModflowTypes.GetMT3DConc5ParamClassType.Ane_ParamName;
                  end;
              else
                Assert(False);
              end;
              TimeParamName := TimeParamName + IntToStr(TimeIndex);
              MT3DSpeciesIndicies[TimeIndex - 1, SpeciesIndex - 1] :=
                FHBLayer.GetParameterIndex
                (CurrentModelHandle, TimeParamName);
            end;
          end;
        end;

        frmProgress.pbActivity.Max := ContourCount;
        for ContourIndex := 0 to ContourCount - 1 do
        begin
          if not ContinueExport then
            break;
          frmProgress.pbActivity.StepIt;
          Application.ProcessMessages;
          Contour := TContourObjectOptions.Create
            (CurrentModelHandle, LayerHandle, ContourIndex);
          try
            if Contour.ContourType(CurrentModelHandle) <> ctOpen then
            begin
              Inc(LineErrors);
            end
            else
            begin
              FHBTop := Contour.GetFloatParameter(CurrentModelHandle, TopIndex);
              FHBBottom := Contour.GetFloatParameter(CurrentModelHandle,
                BottomIndex);
              if TCustomFHBLayer.UseIFACE then
              begin
                A_FHB_Cell.IAUX := Contour.GetIntegerParameter(CurrentModelHandle,
                  IFACE_Index);
              end;

              for CellIndex := 0 to GGetCountOfACellList(ContourIndex) - 1 do
              begin
                if not ContinueExport then
                  break;
                Application.ProcessMessages;
                A_FHB_Cell.Row := GGetCellRow(ContourIndex, CellIndex);
                A_FHB_Cell.Column := GGetCellColumn(ContourIndex, CellIndex);
                ContourLength := GGetCellSumSegmentLength(ContourIndex,
                  CellIndex);
                LineFraction := GGetFractionOfLine(ContourIndex, CellIndex);
                Top := Discretization.Elevations[A_FHB_Cell.Column - 1,
                  A_FHB_Cell.Row - 1, UnitIndex - 1];
                Bottom := Discretization.Elevations[A_FHB_Cell.Column - 1,
                  A_FHB_Cell.Row - 1, UnitIndex];

                if ShowWarnings and ((FHBTop > Top) or (FHBTop < Bottom)) then
                begin
                  TopElevationErrors.Add(Format('[%d, %d]',
                    [A_FHB_Cell.Column, A_FHB_Cell.Row]));
                end;
                if ShowWarnings and ((FHBBottom > Top) or (FHBBottom < Bottom))
                  then
                begin
                  BottomElevationsErrors.Add(Format('[%d, %d]',
                    [A_FHB_Cell.Column, A_FHB_Cell.Row]));
                end;
                StartLayer := frmModflow.ModflowLayer(UnitIndex, Top, Bottom, FHBTop);
                EndLayer := frmModflow.ModflowLayer(UnitIndex, Top, Bottom, FHBBottom);

                for LayerIndex := StartLayer to EndLayer do
                begin
                  A_FHB_Cell.Layer := LayerIndex;
                  FHB_Cell := TFHB_Cell.Create(A_FHB_Cell, StressPeriodCount);
                  FHBList.Add(FHB_Cell);

                  for StressPeriodIndex := 0 to StressPeriodCount - 1 do
                  begin
                    if not ContinueExport then
                      break;
                    Application.ProcessMessages;
                    BoundaryType :=
                      Contour.GetIntegerParameter(CurrentModelHandle,
                      BoundaryTypeIndicies[StressPeriodIndex]);
                    Used := BoundaryType <> 0;
                    if Used then
                    begin
                      if BoundaryType = 1 then
                      begin
                        if StressPeriodIndex = 0 then
                        begin
                          FHB_Cell.BoundaryType := btHead;
                          PreviousBoundaryType := BoundaryType;
                        end
                        else
                        begin
                          if PreviousBoundaryType <> BoundaryType then
                          begin
                            HeadErrors.Add(Format('[%d, %d, %d, %d]',
                              [UnitIndex,
                              A_FHB_Cell.Row, A_FHB_Cell.Column,
                                StressPeriodIndex + 1]));
                          end;
                        end;
                        StartHead :=
                          Contour.GetFloatParameter(CurrentModelHandle,
                          StartHeadIndicies[StressPeriodIndex]);
                        EndHeadUsed :=
                          Contour.GetBoolParameter(CurrentModelHandle,
                          EndHeadUsedIndicies[StressPeriodIndex]);
                        if EndHeadUsed then
                        begin
                          EndHead :=
                            Contour.GetFloatParameter(CurrentModelHandle,
                            EndHeadIndicies[StressPeriodIndex]);
                          FHB_Cell.Values[StressPeriodIndex] := StartHead -
                            (StartHead - EndHead) * LineFraction;
                        end
                        else
                        begin
                          FHB_Cell.Values[StressPeriodIndex] := StartHead;
                        end;
                      end
                      else
                      begin
                        if StressPeriodIndex = 0 then
                        begin
                          FHB_Cell.BoundaryType := btFlux;
                          PreviousBoundaryType := BoundaryType;
                          Fraction := frmModflow.FractionForLayer(Top, Bottom,
                            FHBTop, FHBBottom, UnitIndex, LayerIndex);
                        end