unit WriteCHDUnit;

interface

uses Sysutils, Classes, contnrs, Grids, Forms, ANEPIE, OptionsUnit,
  WriteModflowDiscretization, CopyArrayUnit, WriteBFLX_Unit;

type
  TCHDRecord = record
    Layer, Row, Column : integer;
    Shead, Ehead : double;
    IFACE : integer;
    Concentration : double;
    MT3D_Concentrations : T1DDoubleArray;
    SeawatOption: integer;
    Density: double;
  end;

  TCHDParamIndicies = record
    IsParamIndex: ANE_INT16;
    ParamNameIndex: ANE_INT16;
    ElevationIndex: ANE_INT16;
    IsParamName: string;
    ParamNameName: string;
    ElevationName: string;
  end;

  TCHDTimeParamIndicies = record
    SheadIndex: ANE_INT16;
    EHeadIndex: ANE_INT16;
    IFaceIndex: ANE_INT16;
    ConcentrationIndex: ANE_INT16;
    MT3D_ConcentrationIndicies : array of ANE_INT16;
    SeawatOptionIndex: ANE_INT16;
    DensityIndex: ANE_INT16;
    SheadName: string;
    EHeadName: string;
    IFaceName: string;
    ConcentrationName: string;
    MT3D_ConcentrationNames : array of string;
    SeawatOptionName: string;
    DensityName: string;
  end;

  TCHD_Cell = class;

  TCHDList = Class(TObjectList)
  private
    function Add(A_Cell : TCHDRecord) : integer; overload;
    procedure FillBoundaryList(Layer, Row, Column: integer;
      BoundaryList: TObjectList);
    function GetCHDByLocation(Layer, Row, Column: integer): TCHD_Cell;
    procedure Sort;
    procedure WriteMT3DConcentrations(const Lines: TStrings);
  end;

  TCHDParamValue = Class(TObject)
  private
    Value : double;
    StressPeriodsUsed: Array of boolean;
    InstanceNamesUsed: array of string;
    CHDList : TCHDList;
    Instances : TStringList;
  public
    Constructor Create(RowIndex : Integer);
    Destructor Destroy; override;
  end;

  TCHDPkgWriter = class(TCustomBoundaryWriterWithObservations)
  private
    ParameterNames : TStringList;
    CHD_Times : TList;
    MXL : integer;
    ITMP, NP : integer;
    PointLineContourErrors, AreaContourErrors: integer;
    SpeciesCount : integer;
    SeawatOption1Used: boolean;
    Procedure AddParameterName(RowIndex : integer);
    Procedure AddParameterNameCell(ParameterName : string;
      A_Cell : TCHDRecord; Const Instance : integer);
    procedure AddParameterNames;
    procedure EvaluateAreaCHDLayer(const CurrentModelHandle: ANE_PTR;
      UnitIndex: integer; ProjectOptions: TProjectOptions;
      Discretization: TDiscretizationWriter);
    procedure EvaluateDataSets6and7(const CurrentModelHandle: ANE_PTR;
      Discretization : TDiscretizationWriter);
    procedure EvaluatePointLineCHDLayer(const CurrentModelHandle: ANE_PTR;
      UnitIndex: integer; ProjectOptions: TProjectOptions;
      Discretization : TDiscretizationWriter);
    procedure GetParamIndicies(var Indicies: TCHDParamIndicies;
      const CurrentModelHandle: ANE_PTR; CHDLayer : TLayerOptions);
    procedure GetTimeParamIndicies(var Indicies: TCHDTimeParamIndicies;
      const CurrentModelHandle: ANE_PTR; CHDLayer : TLayerOptions;
      const StressPeriod : integer);
    function GetParameterInstanceCount(const ParameterName: string): integer;
    procedure SortCells;
    procedure WriteDataSet1;
    procedure WriteDataSet2;
    procedure WriteDataSet5(StressPeriodIndex : integer);
    procedure WriteDataSet6(StressPeriodIndex : integer);
    procedure WriteDataSet7(StressPeriodIndex : integer);
    procedure WriteDataSets3And4;
    procedure WriteDatasets5To7;
    procedure RecordIFACE_Parameters(const BFLX_Writer: TBFLX_Writer);
    procedure RecordIFACE_Normal(const BFLX_Writer: TBFLX_Writer);
  public
    function BoundaryUsed(Layer, Row, Column : integer) : boolean; override;
    constructor Create;
    destructor Destroy; override;
    procedure Evaluate(const CurrentModelHandle: ANE_PTR;
      Discretization: TDiscretizationWriter);
    Procedure FillBoundaryList(Layer, Row, Column : integer;
      BoundaryList : TObjectList); override;
    procedure RecordIFACE(const BFLX_Writer: TBFLX_Writer);
    procedure WriteFile(const CurrentModelHandle: ANE_PTR; Root: string;
      Discretization : TDiscretizationWriter);
    procedure WriteMT3DConcentrations(const StressPeriod : integer;
      const Lines : TStrings);
  end;

  TCHD_Cell = class(TObject)
  private
    Cell : TCHDRecord;
    procedure WriteCell(CHDWriter : TCHDPkgWriter);
    procedure WriteMT3DConcentrations(const Lines : TStrings);
  end;

implementation

uses Variables, ProgressUnit, GetCellUnit, ModflowLayerFunctions,
  PointInsideContourUnit, WriteNameFileUnit, UtilityFunctions, ANE_LayerUnit;

function CHDSortFunction(Item1, Item2: Pointer): Integer;
var
  Cell1, Cell2 : TCHD_Cell;
begin
  Cell1 := Item1;
  Cell2 := Item2;
  result := Cell1.Cell.Layer - Cell2.Cell.Layer;
  if Result <> 0 then Exit;
  result := Cell1.Cell.Row - Cell2.Cell.Row;
  if Result <> 0 then Exit;
  result := Cell1.Cell.Column - Cell2.Cell.Column;
end;

{ TCHDList }

function TCHDList.Add(A_Cell: TCHDRecord): integer;
var
  CHDObject : TCHD_Cell;
  Index : integer;
begin
  for Index := 0 to Count -1 do
  begin
    CHDObject := Items[Index] as TCHD_Cell;
    With CHDObject do
    begin
    if (A_Cell.Layer = Cell.Layer) and
       (A_Cell.Row = Cell.Row) and
       (A_Cell.Column = Cell.Column) then
       begin
         result := Index;
         Exit;
       end;
    end;
  end;
  CHDObject := TCHD_Cell.Create;
  result := Add(CHDObject);
  CHDObject.Cell.Layer := A_Cell.Layer;
  CHDObject.Cell.Row := A_Cell.Row;
  CHDObject.Cell.Column := A_Cell.Column;
  CHDObject.Cell.Shead := A_Cell.Shead;
  CHDObject.Cell.Ehead := A_Cell.Ehead;
  CHDObject.Cell.IFACE := A_Cell.IFACE;
  CHDObject.Cell.Concentration := A_Cell.Concentration;
  Copy1DDoubleArray(A_Cell.MT3D_Concentrations,
    CHDObject.Cell.MT3D_Concentrations);
  CHDObject.Cell.SeawatOption := A_Cell.SeawatOption;
  CHDObject.Cell.Density := A_Cell.Density;
end;

procedure TCHDList.FillBoundaryList(Layer, Row, Column: integer;
  BoundaryList: TObjectList);
var
  Index : integer;
  A_Cell : TCHD_Cell;
begin
  for Index := 0 to Count -1 do
  begin
    A_Cell := Items[Index] as TCHD_Cell;
    if (A_Cell.Cell.Layer = Layer) and (A_Cell.Cell.Row = Row)
      and (A_Cell.Cell.Column = Column) then
    begin
      BoundaryList.Add(TBoundaryCell.Create(Index));
    end;
  end;
end;

function TCHDList.GetCHDByLocation(Layer, Row, Column: integer): TCHD_Cell;
var
  Index : integer;
  ACell : TCHD_Cell;
begin
  result := nil;
  for Index := 0 to Count -1 do
  begin
    ACell := Items[Index] as TCHD_Cell;
    if (ACell.Cell.Layer = Layer) and (ACell.Cell.Row = Row)
      and (ACell.Cell.Column = Column) then
    begin
      result := ACell;
      Exit;
    end;
  end;
end;

procedure TCHDList.Sort;
begin
  inherited Sort(CHDSortFunction);
end;

procedure TCHDList.WriteMT3DConcentrations(const Lines: TStrings);
var
  Index : integer;
  ACell : TCHD_Cell;
begin
  for Index := 0 to Count -1 do
  begin
    ACell := Items[Index] as TCHD_Cell;
    ACell.WriteMT3DConcentrations(Lines);
  end;
end;

{ TCHDParamValue }

constructor TCHDParamValue.Create(RowIndex: Integer);
var
//  Index : integer;
  TimeIndex, InstanceIndex : Integer;
  StressPeriodCount : integer;
  dgColumn : integer;
  AStringGrid : TStringGrid;
begin
  Instances := TStringList.Create;
  StressPeriodCount :=  frmModflow.dgTime.RowCount -1;
  SetLength(StressPeriodsUsed, StressPeriodCount);
  SetLength(InstanceNamesUsed, StressPeriodCount);
  AStringGrid := frmModflow.sg3dCHDParamInstances.Grids[RowIndex-1];
  for InstanceIndex := 1 to AStringGrid.RowCount -1 do
  begin
    Instances.AddObject(AStringGrid.Cells[0,InstanceIndex], TCHDList.Create);
  end;

  CHDList := TCHDList.Create;
  for TimeIndex := 0 to StressPeriodCount -1 do
  begin
    dgColumn := TimeIndex + 4;
    StressPeriodsUsed[TimeIndex]
      := (frmModflow.dgCHDParameters.Cells[dgColumn,RowIndex]
          <> frmModflow.dgCHDParameters.Columns[dgColumn].PickList[0]);
    InstanceNamesUsed[TimeIndex] := frmModflow.dgCHDParameters.
      Cells[dgColumn,RowIndex];
  end;
  Value := InternationalStrToFloat(frmModflow.dgCHDParameters.Cells[2,RowIndex]);
end;

destructor TCHDParamValue.Destroy;
var
  Index : Integer;
begin
  for Index := 0 to Instances.Count-1 do
  begin
    Instances.Objects[Index].Free;
  end;

  Instances.Free;
  CHDList.Free;
  inherited;
end;

{ TCHD_Cell }

procedure TCHD_Cell.WriteCell(CHDWriter: TCHDPkgWriter);
begin
  Write(CHDWriter.FFile, Cell.Layer, ' ',  Cell.Row, ' ',
    Cell.Column, ' ',
    CHDWriter.FreeFormattedReal(Cell.Shead),
    CHDWriter.FreeFormattedReal(Cell.Ehead));
  if ModflowTypes.GetMFPointLineCHD_LayerType.UseIFACE then
  begin
    Write(CHDWriter.FFile, ' ',  Cell.IFACE);
  end;
  if frmModflow.cbSeaWat.Checked then
  begin
    Write(CHDWriter.FFile, ' ',  Cell.SeawatOption,
    ' ', CHDWriter.FreeFormattedReal(Cell.Density));
  end;

  if frmModflow.cbMOC3D.Checked then
  begin
    Write(CHDWriter.FFile, ' ', CHDWriter.FreeFormattedReal(Cell.Concentration));
  end;
  WriteLn(CHDWriter.FFile);

end;

procedure TCHD_Cell.WriteMT3DConcentrations(const Lines: TStrings);
var
  ALine : string;
  SpeciesIndex : integer;
begin
  Assert(Length(Cell.MT3D_Concentrations) >=1);
  ALine := TModflowWriter.FixedFormattedInteger(Cell.Layer, 10)
    + TModflowWriter.FixedFormattedInteger(Cell.Row, 10)
    + TModflowWriter.FixedFormattedInteger(Cell.Column, 10)
    + TModflowWriter.FixedFormattedReal(Cell.MT3D_Concentrations[0], 10)
    + TModflowWriter.FixedFormattedInteger(1, 10) + ' ';
  for SpeciesIndex := 0 to Length(Cell.MT3D_Concentrations)-1 do
  begin
    ALine := ALine + TModflowWriter.FreeFormattedReal
      (Cell.MT3D_Concentrations[SpeciesIndex]);
  end;
  Lines.Add(ALine);
end;

{ TCHDPkgWriter }

procedure TCHDPkgWriter.AddParameterName(RowIndex: integer);
var
  ParamIndex : integer;
  AParamValue : TCHDParamValue;
  ParameterName: string;
  ErrorMessage : string;
begin
  ParameterName := UpperCase(frmMODFLOW.dgCHDParameters.Cells[0,RowIndex]);
  ParamIndex := ParameterNames.IndexOf(ParameterName);
  if ParamIndex < 0 then
  begin
    AParamValue := TCHDParamValue.Create(RowIndex);
    ParameterNames.AddObject(ParameterName,AParamValue);
  end
  else
  begin
    ErrorMessage := 'Error: Two different parameters with the same name: ' + ParameterName
      + ' in the Constant-Head Boundary package.  Only one of these parameters will be used.';
    ErrorMessages.Add(ErrorMessage);
    frmProgress.reErrors.Lines.Add(ErrorMessage);
  end;
end;

procedure TCHDPkgWriter.AddParameterNameCell(ParameterName: string;
  A_Cell: TCHDRecord; const Instance: integer);
var
  ParamIndex : integer;
  AParamValue : TCHDParamValue;
  CHDList : TCHDList;
  ErrorMessage : string;
begin
  ParamIndex := ParameterNames.IndexOf(UpperCase(ParameterName));
  if ParamIndex < 0 then
  begin
    ErrorMessage := 'Error: Invalid parameter name: ' + ParameterName
      + ' in the Constant-Head Boundary package.  Contours using this parameter name will be '
      + 'ignored.';
    ErrorMessages.Add(ErrorMessage);
    frmProgress.reErrors.Lines.Add(ErrorMessage);
  end
  else
  begin
    AParamValue := ParameterNames.Objects[ParamIndex] as TCHDParamValue;
    if AParamValue.Instances.Count > 0 then
    begin
      CHDList := AParamValue.Instances.Objects[Instance] as TCHDList;
    end
    else
    begin
      CHDList := AParamValue.CHDList;
    end;
    CHDList.Add(A_Cell);
  end;
end;

procedure TCHDPkgWriter.AddParameterNames;
var
  RowIndex : integer;
begin
  for RowIndex := 1 to frmMODFLOW.dgCHDParameters.RowCount -1 do
  begin
    AddParameterName(RowIndex);
  end;
end;

function TCHDPkgWriter.BoundaryUsed(Layer, Row, Column: integer): boolean;
var
  ListIndex, InstanceIndex : integer;
  CHDList : TCHDList;
  ACell : TCHD_Cell;
  AParamValue : TCHDParamValue;
  Index : integer;
begin
  result := False;
  for ListIndex := 0 to CHD_Times.Count -1 do
  begin
    CHDList := CHD_Times[ListIndex];
    ACell := CHDList.GetCHDByLocation(Layer, Row, Column);
    result := ACell <> nil;
    if result then Exit;
  end;

  for Index := 0 to ParameterNames.Count -1 do
  begin
    AParamValue := ParameterNames.Objects[Index] as TCHDParamValue;
    ACell := AParamValue.CHDList.GetCHDByLocation(Layer, Row, Column);
    result := ACell <> nil;
    if result then Exit;
    for InstanceIndex := 0 to AParamValue.Instances.Count -1 do
    begin
      CHDList := AParamValue.Instances.Objects[InstanceIndex] as TCHDList;
      ACell := CHDList.GetCHDByLocation(Layer, Row, Column);
      result := ACell <> nil;
      if result then Exit;
    end;
  end;
end;

constructor TCHDPkgWriter.Create;
begin
  inherited;
  PointLineContourErrors := 0;
  AreaContourErrors := 0;
  ParameterNames := TStringList.Create;
  CHD_Times := TList.Create;
end;

destructor TCHDPkgWriter.Destroy;
var
  Index : integer;
  AParamValue : TCHDParamValue;
  ACHDList : TCHDList;
begin
  for Index := ParameterNames.Count -1 downto 0 do
  begin
    AParamValue := ParameterNames.Objects[Index] as TCHDParamValue;
    AParamValue.Free;
  end;
  ParameterNames.Free;

  for Index := CHD_Times.Count -1 downto 0 do
  begin
    ACHDList := CHD_Times[Index];
    ACHDList.Free;
  end;
  CHD_Times.Free;
  inherited;

end;

procedure TCHDPkgWriter.Evaluate(const CurrentModelHandle: ANE_PTR;
  Discretization: TDiscretizationWriter);
var
  Index : integer;
  ErrorMessage : string;
begin
  SeawatOption1Used := False;
  for Index := 1 to frmModflow.dgTime.RowCount -1 do
  begin
    CHD_Times.Add(TCHDList.Create);
  end;
  if ContinueExport then
  begin
    AddParameterNames;
  end;
  frmProgress.pbPackage.Max := 2 ;
  if ContinueExport then
  begin
    frmProgress.lblPackage.Caption := 'Constant-Head Boundary';
    Application.ProcessMessages;

    EvaluateDataSets6and7(CurrentModelHandle, Discretization);
    frmProgress.pbPackage.StepIt;
    Application.ProcessMessages;
  end;
  if ContinueExport then
  begin
    SortCells;
    frmProgress.pbPackage.StepIt;
    Application.ProcessMessages;
  end;
  if PointLineContourErrors > 0 then
  begin
    ErrorMessage := 'Warning: ' + IntToStr(AreaContourErrors)
      + ' contours in the CHD package '
      + 'are closed contours but are on a layer '
      + 'reserved for point or open contours.  '
      + 'These contours will be ignored.';
    frmProgress.reErrors.Lines.Add(ErrorMessage);
    ErrorMessages.Add(ErrorMessage);
  end;
  if AreaContourErrors > 0 then
  begin
    ErrorMessage := 'Warning: ' + IntToStr(AreaContourErrors)
      + ' contours in the CHD package '
      + 'are point or open contours but are on a layer '
      + 'reserved for closed contours.  '
      + 'These contours will be ignored.';
    frmProgress.reErrors.Lines.Add(ErrorMessage);
    ErrorMessages.Add(ErrorMessage);
  end;
end;

procedure TCHDPkgWriter.EvaluateAreaCHDLayer(
  const CurrentModelHandle: ANE_PTR; UnitIndex: integer;
  ProjectOptions: TProjectOptions; Discretization: TDiscretizationWriter);
var
  LayerName : string;
  LayerHandle : ANE_PTR;
  CHDLayer : TLayerOptions;
  GridLayer : TLayerOptions;
  Indicies : TCHDParamIndicies;
  TimeIndex : integer;
  TimeParamName : string;
  TimeIndicies : array of TCHDTimeParamIndicies;
  ContourCount : integer;
  ContourIndex : integer;
  Contour : TContourObjectOptions;
  IsParam : boolean;
  ParameterName : string;
  A_Cell : TCHDRecord;
  StressPeriodCount : integer;
  StressPeriodIndex : integer;
  CHDList : TCHDList;
  ContourConductance : double;
  BlockIndex : integer;
  ABlock : TBlockObjectOptions;
  X, Y : ANE_DOUBLE;
  ColIndex, RowIndex : integer;
  AreaBoundaryInBlock : boolean;
  IsNA : boolean;
  Used : boolean;
  Expression : string;
  TopLayer, BottomLayer, LayerIndex : integer;
  InstanceLimit : integer;
  InContour : boolean;
  SpeciesIndex : integer;
  ContourIntersectArea: double;
  NotNA_Expression: string;
begin
  // area CHD boundaries
  if frmMODFLOW.cbUseAreaCHD.Checked then
  begin
    TopLayer := frmMODFLOW.MODFLOWLayersAboveCount(UnitIndex) + 1;
    BottomLayer := TopLayer + frmMODFLOW.DiscretizationCount(UnitIndex) - 1;
    StressPeriodCount := frmModflow.dgTime.RowCount -1;
    SetLength(TimeIndicies,StressPeriodCount);
    SetLength(A_Cell.MT3D_Concentrations, SpeciesCount);

    LayerName := ModflowTypes.GetMFAreaCHD_LayerType.WriteNewRoot
      + IntToStr(UnitIndex);
    AddVertexLayer(CurrentModelHandle,LayerName);
    SetAreaValues;
    LayerHandle :=  ProjectOptions.GetLayerByName(CurrentModelHandle,LayerName);
    CHDLayer := TLayerOptions.Create(LayerHandle);
    GridLayer := TLayerOptions.Create(Discretization.GridLayerHandle);
    try
      GetParamIndicies(Indicies, CurrentModelHandle, CHDLayer);

      for TimeIndex := 1 to StressPeriodCount do
      begin
        if not ContinueExport then break;
        Application.ProcessMessages;

        GetTimeParamIndicies(TimeIndicies[TimeIndex-1], CurrentModelHandle,
          CHDLayer, TimeIndex);
      end; // for TimeIndex := 1 to StressPeriodCount do

      ContourCount := CHDLayer.NumObjects(CurrentModelHandle,pieContourObject);
      if frmModflow.cbAltCHD.Checked then
      begin
        frmProgress.pbActivity.Max := Discretization.NCOL * Discretization.NROW;
      end
      else
      begin
        frmProgress.pbActivity.Max := Discretization.NCOL
          * Discretization.NROW * ContourCount;
        if not frmModflow.cbAreaCHDContour.Checked then
        begin
          frmProgress.pbActivity.Max := frmProgress.pbActivity.Max +
            Discretization.NCOL * Discretization.NROW;
        end;
      end;

      NotNA_Expression := '(' + LayerName + '.'
        + ModflowTypes.GetMFCHD_StartHeadParamType.ANE_ParamName + '1'
        + '<>' + kNA + ')&(' + LayerName + '.'
        + ModflowTypes.GetMFCHD_EndHeadParamType.ANE_ParamName + '1'
        + '<>' + kNA + ')';

      for ColIndex := 1 to Discretization.NCOL do
      begin
        if not ContinueExport then break;
        Application.ProcessMessages;
        for RowIndex := 1 to Discretization.NROW do
        begin
          if not ContinueExport then break;
          Application.ProcessMessages;
          BlockIndex := Discretization.BlockIndex(RowIndex -1, ColIndex -1);
          ABlock := TBlockObjectOptions.Create(CurrentModelHandle,
            Discretization.GridLayerHandle,BlockIndex);
          try
            ABlock.GetCenter(CurrentModelHandle,X,Y);
          finally
            ABlock.Free;
          end;
          AreaBoundaryInBlock := False;
          if not frmModflow.cbAltCHD.Checked then
          begin
            for ContourIndex := 0 to ContourCount -1 do
            begin
              if not ContinueExport then break;
              frmProgress.pbActivity.StepIt;
              Application.ProcessMessages;
              Contour := TContourObjectOptions.Create
                (CurrentModelHandle,LayerHandle,ContourIndex);
              try
                if Contour.ContourType(CurrentModelHandle) <> ctClosed then
                begin
                  Inc(AreaContourErrors);
                end
                else
                begin
                  InContour := False;
                  ContourIntersectArea := GContourIntersectCell(ContourIndex,
                    ColIndex, RowIndex);
                  if ContourIntersectArea > 0 then
                  {InContour := GPointInsideContour(ContourIndex, X, Y);
                  if InContour then }
                  begin
                    if GridLayer.BooleanValueAtXY(CurrentModelHandle, X, Y,
                      NotNA_Expression) then
                    begin
                      InContour := True;
                      IsParam := Contour.GetBoolParameter(CurrentModelHandle,Indicies.IsParamIndex);
                      if IsParam then
                      begin
                        ParameterName := Contour.GetStringParameter(CurrentModelHandle,Indicies.ParamNameIndex);
                        InstanceLimit := GetParameterInstanceCount(ParameterName);
                      end; // if IsParam then

                      AreaBoundaryInBlock := True;

                      A_Cell.Row := RowIndex;
                      A_Cell.Column := ColIndex;
                      if IsParam then
                      begin
                        for StressPeriodIndex := 0 to InstanceLimit-1 do
                        begin
                          A_Cell.SHead := Contour.GetFloatParameter
                            (CurrentModelHandle,
                            TimeIndicies[StressPeriodIndex].SheadIndex);
                          A_Cell.EHead := Contour.GetFloatParameter
                            (CurrentModelHandle,
                            TimeIndicies[StressPeriodIndex].EheadIndex);
                          if frmMODFLOW.cbSeaWat.Checked then
                          begin
                            A_Cell.SeawatOption := Contour.GetIntegerParameter
                              (CurrentModelHandle,
                              TimeIndicies[StressPeriodIndex].SeawatOptionIndex);
                            if A_Cell.SeawatOption = 1 then
                            begin
                              SeawatOption1Used := True;
                              A_Cell.Density := Contour.GetFloatParameter
                                (CurrentModelHandle,
                                TimeIndicies[StressPeriodIndex].DensityIndex);
                            end
                            else
                            begin
                              // Density is not used so set it to a default value.
                              A_Cell.Density := 1025;
                            end;

                          end; // if frmMODFLOW.cbMOC3D.Checked then
                          if frmMODFLOW.cbMOC3D.Checked then
                          begin
                            A_Cell.Concentration := Contour.GetFloatParameter
                              (CurrentModelHandle,
                              TimeIndicies[StressPeriodIndex].ConcentrationIndex);
                          end; // if frmMODFLOW.cbMOC3D.Checked then
                          if ModflowTypes.GetMFAreaCHD_LayerType.UseIFACE then
                          begin
                            A_Cell.IFACE := Contour.GetIntegerParameter
                              (CurrentModelHandle,
                              TimeIndicies[StressPeriodIndex].IFACEIndex);
                          end;  // if ModflowTypes.GetMFAreaCHD_LayerType.UseIFACE then
                          if frmModflow.cbMT3D.Checked then
                          begin
                            for SpeciesIndex := 0 to SpeciesCount -1 do
                            begin
                              A_Cell.MT3D_Concentrations[SpeciesIndex]
                                := Contour.GetFloatParameter
                                (CurrentModelHandle, TimeIndicies
                                [StressPeriodIndex].MT3D_ConcentrationIndicies
                                [SpeciesIndex]);
                            end;
                          end;
                          for LayerIndex := TopLayer to BottomLayer do
                          begin
                            A_Cell.Layer := LayerIndex;
                            AddParameterNameCell(ParameterName,A_Cell,StressPeriodIndex);
                          end;
                        end;
                      end
                      else // if IsParam then
                      begin
                        for StressPeriodIndex := 0 to StressPeriodCount-1 do
                        begin
                          if not ContinueExport then break;
                          Application.ProcessMessages;
                          A_Cell.SHead := Contour.GetFloatParameter
                            (CurrentModelHandle,
                            TimeIndicies[StressPeriodIndex].SheadIndex);
                          A_Cell.EHead := Contour.GetFloatParameter
                            (CurrentModelHandle,
                            TimeIndicies[StressPeriodIndex].EheadIndex);
                          if frmMODFLOW.cbSeaWat.Checked then
                          begin
                            A_Cell.SeawatOption := Contour.GetIntegerParameter
                              (CurrentModelHandle,
                              TimeIndicies[StressPeriodIndex].SeawatOptionIndex);
                            if A_Cell.SeawatOption = 1 then
                            begin
                              SeawatOption1Used := True;
                              A_Cell.Density := Contour.GetFloatParameter
                                (CurrentModelHandle,
                                TimeIndicies[StressPeriodIndex].DensityIndex);
                            end
                            else
                            begin
                              // Density is not used so set it to a default value.
                              A_Cell.Density := 1025;
                            end;

                          end; // if frmMODFLOW.cbMOC3D.Checked then
                          if frmMODFLOW.cbMOC3D.Checked then
                          begin
                            A_Cell.Concentration := Contour.GetFloatParameter
                              (CurrentModelHandle,
                              TimeIndicies[StressPeriodIndex].ConcentrationIndex);
                          end; // if frmMODFLOW.cbMOC3D.Checked then
                          if ModflowTypes.GetMFAreaCHD_LayerType.UseIFACE then
                          begin
                            A_Cell.IFACE := Contour.GetIntegerParameter
                              (CurrentModelHandle,
                              TimeIndicies[StressPeriodIndex].IFACEIndex);
                          end;  // if ModflowTypes.GetMFAreaCHD_LayerType.UseIFACE then
                          if frmModflow.cbMT3D.Checked then
                          begin
                            for SpeciesIndex := 0 to SpeciesCount -1 do
                            begin
                              A_Cell.MT3D_Concentrations[SpeciesIndex]
                                := Contour.GetFloatParameter
                                (CurrentModelHandle, TimeIndicies
                                [StressPeriodIndex].MT3D_ConcentrationIndicies
                                [SpeciesIndex]);
                            end;
                          end;
                          CHDList := CHD_Times[StressPeriodIndex];
                          for LayerIndex := TopLayer to BottomLayer do
                          begin
                            A_Cell.Layer := LayerIndex;
                            CHDList.Add(A_Cell);
                          end;
                        end; // for StressPeriodIndex := 0 to StressPeriodCount-1 do
                      end; // if IsParam then else
                    end;
                  end;
                end; // if Contour.ContourType(CurrentModelHandle) = ctOpen then
              finally
                Contour.Free;
              end;

            end; // for ContourIndex := 0 to ContourCount -1 do
          end; // if not frmModflow.cbAltGHB.Checked then
          if not ContinueExport then break;

          if frmModflow.cbAreaCHDContour.Checked then
          begin
            // only use contours.
            Continue;
          end;
          frmProgress.pbActivity.StepIt;
          Application.ProcessMessages;


          if (frmModflow.cbAltCHD.Checked or not AreaBoundaryInBlock) then
          begin

            Expression := LayerName + '.' + TimeIndicies[0].SheadName;

            IsNA := GridLayer.BooleanValueAtXY(CurrentModelHandle,X,Y,
              Expression + '=$N/A');
            if not IsNA then
            begin

              Expression := LayerName + '.' + Indicies.IsParamName;

              IsParam := GridLayer.BooleanValueAtXY
                (CurrentModelHandle,X,Y, Expression);
              if IsParam then
              begin
                Expression := LayerName + '.' + Indicies.ParamNameName;

                ParameterName := GridLayer.StringValueAtXY
                  (CurrentModelHandle,X,Y, Expression);
                InstanceLimit := GetParameterInstanceCount(ParameterName);
              end; // if IsParam then

              A_Cell.Row := RowIndex;
              A_Cell.Column := ColIndex;
              if IsParam then
              begin
                for StressPeriodIndex := 0 to InstanceLimit-1 do
                begin
                  begin
                    Expression := LayerName + '.' + TimeIndicies[StressPeriodIndex].SHeadName;
                    A_Cell.SHead := GridLayer.RealValueAtXY
                      (CurrentModelHandle,X,Y, Expression);
                    Expression := LayerName + '.' + TimeIndicies[StressPeriodIndex].EHeadName;
                    A_Cell.EHead := GridLayer.RealValueAtXY
                      (CurrentModelHandle,X,Y, Expression);
                    if frmMODFLOW.cbSeaWat.Checked then
                    begin
                      Expression := LayerName + '.' + TimeIndicies[StressPeriodIndex].SeawatOptionName;

                      A_Cell.SeawatOption := GridLayer.IntegerValueAtXY
                        (CurrentModelHandle,X,Y, Expression);
                      if A_Cell.SeawatOption = 1 then
                      begin
                        SeawatOption1Used := True;
                        Expression := LayerName + '.' + TimeIndicies[StressPeriodIndex].DensityName;

                        A_Cell.Density := GridLayer.RealValueAtXY
                          (CurrentModelHandle,X,Y, Expression);
                      end
                      else
                      begin
                        A_Cell.Density := 1025;
                      end;
                    end; // if frmMODFLOW.cbSeaWat.Checked then
                    if frmMODFLOW.cbMOC3D.Checked then
                    begin