unit WriteStrUnit;
{
  Write the input for the STR package.
}

interface

uses Sysutils, classes, contnrs, Forms, Grids, AnePIE,
  WriteModflowDiscretization,
  OptionsUnit, IntListUnit, RealListUnit, WriteLakesUnit;

type
  TStrReachRecord = record
    Layer : integer;
    Row : integer;
    Column : integer;
    ChannelLength : double;
    HydraulicConductivity: double;
    StreamBedTop: array of double;
    StreamBedBottom: array of double;
    Stage: array of double;
    Width: array of double;
    Slope: array of double;
    Roughness: array of double;
  end;

  TStrParamIndicies = record
    ParameterNameIndex: ANE_INT32;
    IsParameterIndex: ANE_INT32;
    SegmentNumberIndex: ANE_INT32;
    DownstreamSegmentNumberIndex: ANE_INT32; 
    DiversionSegmentNumberIndex: ANE_INT32;
    HydraulicConductivityIndex: ANE_INT32;
    HydraulicConductivityName: string;
    StatFlagIndex: ANE_INT32;
    PlotSymbolIndex: ANE_INT32;
    HydmodStageIndex: ANE_INT32;
    HydmodFlowInIndex: ANE_INT32;
    HydmodFlowOutIndex: ANE_INT32;
    HydmodFlowIntoAquiferIndex: ANE_INT32;
    HydmodLabelIndex: ANE_INT32;
  end;

  TStrTimeParamIndicies = record
    OnOffParamIndex : ANE_INT32;
    StreamFlowParamIndex : ANE_INT32;
    StreamUpTopElevParamIndex : ANE_INT32;
    DownstreamTopElevationParamIndex : ANE_INT32;
    TopElevName: string;
    UpstreamBottomParamIndex : ANE_INT32;
    DownstreamBottomParamIndex : ANE_INT32;
    BottomElevName: string;
    UpsteamStageIndex : ANE_INT32;
    DownstreamStageIndex : ANE_INT32;
    StageName: string;
    UpstreamWidthIndex : ANE_INT32;
    WidthName: string;
    DownstreamWidthIndex : ANE_INT32;
    SlopeIndex : ANE_INT32;
    SlopeName: string;
    RoughnessIndex : ANE_INT32;
    RoughnessName: string;
    IFACEParamIndex : ANE_INT32;
    MT3D_ConcentrationIndicies : array of ANE_INT32;
  end;

  TStrObservationTimeParamIndicies = record
    ObservationNameParamIndex : ANE_INT32;
    TimeParamIndex : ANE_INT32;
    LossParamIndex : ANE_INT32;
    StatisticParamIndex : ANE_INT32;
    IsObservationParamIndex : ANE_INT32;
    IsPredictionParamIndex : ANE_INT32;
    ObservationNumberIndex : ANE_INT32;
    ReferenceStressPeriodIndex: ANE_INT32;
  end;

  EStreamError = class(Exception);

  TStrReachObject = class(TObject)
    private
    Reach : TStrReachRecord;
    procedure WriteMT3DConcentrations(const Lines: TStrings;
      const Concentration : string);
    function GetCol: integer;
    function GetLayer: integer;
    function GetRow: integer;
  public
    property Col: integer read GetCol;
    property Row: integer read GetRow;
    property Layer: integer read GetLayer;
  end;

  TStreamObservation = class(TObject)
    ObservationNumber : integer;
    Segments : TList;
    constructor Create;
    Destructor Destroy; override;
  end;

  TStrSegment = Class;
  TStrWriter = class;

  TStrReachList = Class(TObjectList)
  private
    Segment : TStrSegment;
    function GetItems(Index: Integer): TStrReachObject;
    procedure SetItems(Index: Integer; const Value: TStrReachObject);
    function Add(StreamReach: TStrReachRecord): TStrReachObject; overload;
    Procedure Write(StreamWriter: TStrWriter;
      Const TimeIndex : integer);
    Procedure WriteWidthSlopeRoughness(StreamWriter: TStrWriter;
      Const TimeIndex : integer);
    Constructor Create(const Segment : TStrSegment);
    function GetTotalLength : double;
    Procedure WriteObservation(const ReachList : TStringList);
    procedure WriteMT3DConcentrations(const Lines: TStrings;
      const Concentration : string);
  public
    property Items[Index: Integer]: TStrReachObject read GetItems
      write SetItems; default;
  end;

  TStrSegment = class(TObject)
  Private
    Active : array of boolean;
    IsPrediction : array of boolean;
    IsObservation : array of boolean;
    // Data Sets 4A and 6A
    Slope : TRealList;
    Flow : TRealList;
    ChannelRoughness : TRealList; // ROUGHCH
    // Data Sets 4B and 6B
    HydraulicConductivity : double; // Hc1fact, HCOND1
    UpstreamBedBottom : TRealList; // THICKM1
    UpstreamBedElevation : TRealList; // ELEVUP
    UpstreamWidth : TRealList; // WIDTH1
    UpstreamStage : TRealList; // DEPTH1
    // Data Sets 4C and 6C
    DownstreamBedBottom : TRealList; // THICKM2
    DownstreamBedElevation : TRealList; // ELEVdn
    DownstreamWidth : TRealList; // WIDTH2
    DownstreamStage : TRealList; // DEPTH2
    IFACE : TIntegerList;
    // Data Set 4F and 6F
    FNumber : integer; // NSEG
    FOutflowSegment : integer; // OUTSEG
    FDiversionSegment : integer; // IUPSEG
    Tributaries : TList;
    StreamWriter : TStrWriter;
    StatFlag : integer;
    PlotSymbol : integer;
    ObservationTimes : TRealList;
    ObservationLoss : TRealList;
    ObservationStatistic : TRealList;
    ObservationNames : TStringList;
    ObservationNumbers : TIntegerList;
    HydmodStageObservation : boolean;
    HydmodFlowInObservation : boolean;
    HydmodFlowOutObservation : boolean;
    HydmodFlowIntoAquiferObservation : boolean;
    HydmodLabel : string;
    MT3D_Concentrations : array of array of double;
    SpeciesCount : integer;
    ReferenceStressPeriod: TIntegerList;
    ReachList : TStrReachList;
    function Use(const ObsIndex : integer) : boolean;
    Function GetNumber : integer;
    function GetDiversionSegment : integer;
    function GetSegmentByNumber(const SegmentNumber : integer) : TStrSegment;
    function GetReach(Index: integer): TStrReachObject;
    property DiversionSegment : integer read GetDiversionSegment;
    function ValuesAreValid(var ErrorMessage : string;
      const TimeIndex : integer; const ICALC : integer;
      const AlternateExportTemplate: boolean) : boolean;
    procedure WriteSegment(const StreamWriter : TStrWriter;
      const TimeIndex : integer);
    function Width(TimeIndex : integer; const Factor : double) : double;
    procedure WriteHydmod(const HydmodWriter : TListWriter);
    procedure WriteMT3DConcentrations(
      const StressPeriod: integer; const Lines: TStrings);
  public
    // Data Set 4F and 6F
    property UserAssignedNumber: integer read FNumber;
    property Number : integer read GetNumber;
    Constructor Create;
    Destructor Destroy; override;
    function ReachCount: integer;
    property Reaches[Index: integer]: TStrReachObject read GetReach;
  end;

  TStrSegmentList = class(TObjectList)
  private
    Procedure Write(const StreamWriter: TStrWriter;
      const TimeIndex : integer; var ErrorsFound : boolean);
    procedure WriteMT3DConcentrations(
      const StressPeriod: integer; const Lines: TStrings);
  end;

  TStrParameterRecord = record
    Name: ShortString;
    Value : double;
  end;

  TStrParameterObject = class(TObject)
  private
    FName: ShortString;
    Value : double;
    SegmentList : TStrSegmentList;
    Active : array of boolean;
    InstanceNamesUsed: array of string;
    Instances : TStringList;
    procedure SetName(const Value: ShortString);
    property Name : ShortString read FName write SetName;
    Procedure Write(StreamWriter: TStrWriter; var ErrorsFound : boolean);
  public
    Constructor Create;
    Destructor Destroy; override;
  end;

  TStrParameterList = class(TObjectList)
  private
    function Add(Parameter : TStrParameterRecord) : TStrParameterObject;
    Procedure Write(StreamWriter: TStrWriter; var ErrorFound : boolean);
    function GetParameterByName(Name : string) : TStrParameterObject;
  end;

  TStrWriter = class(TListWriter)
  private
    ICALC : integer;
    NTRIB :integer;
    NDIV : integer;
    CurrentModelHandle : ANE_PTR;
    ParameterList : TStrParameterList;
    SegmentList : TStrSegmentList;
    DisWriter : TDiscretizationWriter;
    StreamObservations : TStringList;
    NQST, NQCST, NQTST : integer;
    ObservationIndicies : TIntegerList;
    ITMP : integer;
    LineErrors : integer;
    AlternateExportTemplate: boolean;
    ListOfSegments : TList;
    procedure AddParameters;
    procedure GetStreamParameterIndicies(const Layer: TLayerOptions;
      var  Indicies : TStrParamIndicies);
    procedure GetStreamTimeParameterIndicies(Const Layer: TLayerOptions;
      var Indicies : TStrTimeParamIndicies; const TimeIndex : integer);
    procedure GetStreamSegmentValues(const Indicies : TStrParamIndicies;
      const Segment : TStrSegment; const Contour : TContourObjectOptions);
    procedure GetStreamTimeParameterValues(
      const Indicies: TStrTimeParamIndicies;
      const Segment: TStrSegment;
      const Contour: TContourObjectOptions;
      const TimeIndex : integer);
    Procedure AddCells(const Segment : TStrSegment;
      const ContourIndex, UnitIndex : integer;
      const Layer: TLayerOptions; const Indicies : TStrParamIndicies;
      const TimeIndicies : array of TStrTimeParamIndicies);
    procedure EvaluateStreamLayer(const UnitIndex : integer);
    function ComputeStreamConstant : double;
    Procedure WriteDataSets1and2;
    Procedure WriteDataSets3and4(var ErrorsFound: boolean);
    Procedure WriteDataSets5To7(StressPeriod : integer;
      var ErrorsFound: boolean);
    procedure MakeListOfSegments;
    procedure EvaluateTributaries;
    procedure SetICALC;
    procedure WriteDataSet8(StressPeriod: integer);
    procedure WriteDataSet9(var ErrorFound : boolean;
      Const EvaluateErrors : boolean);
    procedure WriteDataSet10(var ErrorFound : boolean;
      Const EvaluateErrors : boolean);
    procedure GetStreamObservationTimeParameterIndicies(
      const Layer: TLayerOptions;
      var Indicies: TStrObservationTimeParamIndicies;
      const TimeIndex: integer);
    procedure GetStreamObservationTimeParameterValues(
      const Indicies: TStrObservationTimeParamIndicies;
      const Segment: TStrSegment;
      const Contour: TContourObjectOptions;
      const TimeIndex : integer);
    procedure EvaluateStreamObservations;
    Procedure WriteObservationsDataSets1to5(const ObsFile : TStringList;
      const FileName : string);
    Procedure WriteObservationsDataSets3to5(const ObsFile : TStringList);
    procedure WriteObservationsDataSet6(const ObsFile : TStringList);
    procedure WriteObservationsDataSet7(const ObsFile : TStringList);
    procedure WriteObservationsDataSets6and7(const ObsFile : TStringList);
    procedure EvaluateStreams(var ErrorFound : boolean);
    function GetSegment(Index: integer): TStrSegment;
  public
    procedure Evaluate(const DiscretizationWriter: TDiscretizationWriter);
    constructor Create;
    Destructor Destroy; override;
    procedure WriteFile(const Root : string;
      const DiscretizationWriter : TDiscretizationWriter);
    procedure WriteObservationFile(const Root: string);
    function HydmodCount: integer;
    procedure WriteHydmod(const HydmodWriter : TListWriter);
    procedure WriteMT3DConcentrations(
      const StressPeriod: integer; const Lines: TStrings);
    class procedure AssignUnitNumbers;
    function SegmentCount: integer;
    property Segments[Index: integer]: TStrSegment read GetSegment;
  end;

implementation

uses Math, ProgressUnit, GetCellUnit, BL_SegmentUnit, GetFractionUnit,
  ModflowLayerFunctions, Variables, WriteNameFileUnit, WriteGageUnit,
  WriteHydmodUnit, UtilityFunctions, FixNameUnit;


function SortSegments(Item1, Item2: Pointer): Integer;
Var
  Seg1, Seg2 : TStrSegment;
begin
  Seg1 := Item1;
  Seg2 := Item2;
  result := Seg1.FNumber - Seg2.FNumber;
end;


function SortParameters(Item1, Item2: Pointer): Integer;
Var
  Par1, Par2 : TStrParameterObject;
  Seg1, Seg2 : TStrSegment;
begin
  Par1 := Item1;
  Par2 := Item2;
  if (Par1.SegmentList.Count = 0) and (Par2.SegmentList.Count = 0) then
  begin
    result := 0;
  end
  else if Par1.SegmentList.Count = 0 then
  begin
    result := -1;
  end
  else if Par2.SegmentList.Count = 0 then
  begin
    result := 1;
  end
  else
  begin
    Seg1 := Par1.SegmentList[0] as TStrSegment;
    Seg2 := Par2.SegmentList[0] as TStrSegment;
    result := Seg1.FNumber - Seg2.FNumber;
  end;

end;

{ TStrSegment }

constructor TStrSegment.Create;
var
  TimeCount : integer;
  ObservationTimeCount : integer;
begin
  inherited;
  ReachList := TStrReachList.Create(self);
  Flow := TRealList.Create;
  ChannelRoughness := TRealList.Create;
  ReferenceStressPeriod := TIntegerList.Create;
  TimeCount := frmModflow.dgTime.RowCount -1;
  SetLength(Active,TimeCount);

  ObservationTimeCount := StrToInt(frmModflow.adeObsSTRTimeCount.Text);
  SetLength(IsPrediction,ObservationTimeCount);
  SetLength(IsObservation,ObservationTimeCount);

  UpstreamBedBottom := TRealList.Create;
  UpstreamBedElevation := TRealList.Create;
  UpstreamWidth := TRealList.Create;
  UpstreamStage := TRealList.Create;
  DownstreamBedBottom := TRealList.Create;
  DownstreamBedElevation := TRealList.Create;
  DownstreamWidth := TRealList.Create;
  DownstreamStage := TRealList.Create;
  Slope := TRealList.Create;
  IFACE := TIntegerList.Create;
  if frmModflow.cbMT3D.Checked then
  begin
    SpeciesCount := StrToInt(frmModflow.adeMT3DNCOMP.Text);
    SetLength(MT3D_Concentrations,TimeCount,SpeciesCount);
  end;
  Tributaries := TList.Create;

  ObservationTimes := TRealList.Create;
  ObservationLoss := TRealList.Create;
  ObservationStatistic := TRealList.Create;
  ObservationNumbers := TIntegerList.Create;
  ObservationNames := TStringList.Create;
end;

destructor TStrSegment.Destroy;
begin
  Flow.Free;
  ReachList.Free;
  ChannelRoughness.Free;
  ReferenceStressPeriod.Free;
  UpstreamBedBottom.Free;
  UpstreamBedElevation.Free;
  UpstreamWidth.Free;
  UpstreamStage.Free;
  DownstreamBedBottom.Free;
  DownstreamBedElevation.Free;
  DownstreamWidth.Free;
  DownstreamStage.Free;
  Slope.Free;
  SetLength(MT3D_Concentrations, 0, 0);
  IFACE.Free;
  Tributaries.Free;
  ObservationTimes.Free;
  ObservationLoss.Free;
  ObservationStatistic.Free;
  ObservationNumbers.Free;
  ObservationNames.Free;
  inherited;
end;

function TStrSegment.GetDiversionSegment: integer;
var
  ASegment : TStrSegment;
begin
  if FDiversionSegment = 0 then
  begin
    result := 0;
  end
  else
  begin
    ASegment := GetSegmentByNumber(FDiversionSegment);
    Assert(ASegment <> nil);
    result := ASegment.Number;
  end;
end;

function TStrSegment.GetNumber: integer;
begin
  Assert((StreamWriter <> nil) and (StreamWriter.ListOfSegments <> nil));
  result := StreamWriter.ListOfSegments.IndexOf(self) + 1;
  Assert(result > 0)
end;

function TStrSegment.GetReach(Index: integer): TStrReachObject;
begin
  result := ReachList[Index];
end;

function TStrSegment.GetSegmentByNumber(const SegmentNumber : integer): TStrSegment;
var
  Index : integer;
  ASegment : TStrSegment;
begin
  Assert((StreamWriter <> nil) and  (StreamWriter.ListOfSegments <> nil));
  result := nil;
  for Index := 0 to StreamWriter.ListOfSegments.Count -1 do
  begin
    ASegment := StreamWriter.ListOfSegments[Index];
    if ASegment.FNumber = SegmentNumber then
    begin
      result := ASegment;
      Exit;
    end;
  end;
end;

function TStrSegment.ReachCount: integer;
begin
  result := ReachList.Count;
end;

function TStrSegment.Use(const ObsIndex : integer): boolean;
begin
  result := (ObsIndex = 0) or (ObservationTimes[ObsIndex] <> 0)
    or (ReferenceStressPeriod[ObsIndex] <> 1);
  if result and frmModflow.cbParamEst.Checked then
  begin
    if frmModflow.comboYcintInput.ItemIndex = 0 then
    begin
      result := IsObservation[ObsIndex];
    end
    else
    begin
      result := IsPrediction[ObsIndex];
    end;
  end;
end;

function TStrSegment.ValuesAreValid(var ErrorMessage: string;
  const TimeIndex : integer; const ICALC : integer;
  const AlternateExportTemplate: boolean): boolean;
var
  FirstError : boolean;
  Index: integer;
  ErrorFound: boolean;
  Reach: TStrReachObject;
  Procedure AddCommaIfNeeded;
  begin
    if not FirstError then
    begin
      ErrorMessage := ErrorMessage + ', ';
    end;
  end;
begin
  ErrorMessage := 'Errors in Segment ' + IntToStr(FNumber)
    + ' in Stress period ' + IntToStr(TimeIndex+1) +': ';
  FirstError := True;
  if DiversionSegment < 0 then
  begin
    if Flow[TimeIndex] < 0 then
    begin
      AddCommaIfNeeded;
      ErrorMessage := ErrorMessage + 'Invalid upstream Flow from stream to Lake (IUPSEG < 0 and Flow < 0)';
      FirstError := False;
    end;
  end;
  if ICALC > 0 then
  begin
    ErrorFound := False;
    if AlternateExportTemplate then
    begin
      for Index := 0 to ReachList.Count -1 do
      begin
        Reach:= ReachList[Index];
        if Reach.Reach.Roughness[TimeIndex] <= 0 then
        begin
          ErrorFound := True;
          Break;
        end;
      end;

    end
    else
    begin
      if ChannelRoughness[TimeIndex] <= 0 then
      begin
        ErrorFound := True;
      end
    end;
    if ErrorFound then
    begin
      AddCommaIfNeeded;
      ErrorMessage := ErrorMessage + 'Invalid negative channel roughness (ROUGHCH < 0)';
      FirstError := False;
    end;
  end;

  // test Hydraulic conductivity
  ErrorFound := False;
  if AlternateExportTemplate then
  begin
    for Index := 0 to ReachList.Count -1 do
    begin
      Reach:= ReachList[Index];
      if Reach.Reach.HydraulicConductivity <= 0 then
      begin
        ErrorFound := True;
        Break;
      end;
    end;
  end
  else
  begin
    if HydraulicConductivity <= 0 then
    begin
      ErrorFound := True;
    end
  end;
  if ErrorFound then
  begin
      AddCommaIfNeeded;
      ErrorMessage := ErrorMessage + 'Invalid negative hydraulic conductivity (Hc1fact or HCOND1 < 0)';
      FirstError := False;
  end;

  // test elevations of bed bottom and top
  ErrorFound := False;
  if AlternateExportTemplate then
  begin
    for Index := 0 to ReachList.Count -1 do
    begin
      Reach:= ReachList[Index];
      if Reach.Reach.StreamBedBottom[TimeIndex] >= Reach.Reach.StreamBedTop[TimeIndex] then
      begin
        ErrorFound := True;
        Break;
      end;
    end;
  end
  else
  begin
    if UpstreamBedBottom[TimeIndex] >= UpstreamBedElevation[TimeIndex] then
    begin
      ErrorFound := True;
    end
  end;
  if ErrorFound then
  begin
      AddCommaIfNeeded;
      ErrorMessage := ErrorMessage + 'Warning: negative or zero upstream bed thickness (THICKM1 <= 0)';
      FirstError := False;
  end;

  // test downstream bed bottom and top.
  if not AlternateExportTemplate and
    (DownstreamBedBottom[TimeIndex] >= DownstreamBedElevation[TimeIndex]) then
  begin
      AddCommaIfNeeded;
      ErrorMessage := ErrorMessage + 'Warning: negative or zero downstream bed thickness (THICKM2 <= 0)';
      FirstError := False;
  end;

  // test stream width
  ErrorFound := False;
  if AlternateExportTemplate then
  begin
    for Index := 0 to ReachList.Count -1 do
    begin
      Reach:= ReachList[Index];
      if Reach.Reach.Width[TimeIndex] <= 0 then
      begin
        ErrorFound := True;
        Break;
      end;
    end;
  end
  else
  begin
    if UpstreamWidth[TimeIndex] <= 0 then
    begin
      ErrorFound := True;
    end
  end;
  if ErrorFound then
  begin
      AddCommaIfNeeded;
      ErrorMessage := ErrorMessage + 'Invalid negative or zero upstream stream width with ICALC < 2 (WIDTH1 < 0)';
      FirstError := False;
  end;

  // test downstream width.
  if not AlternateExportTemplate and (DownstreamWidth[TimeIndex] <= 0) then
  begin
      AddCommaIfNeeded;
      ErrorMessage := ErrorMessage + 'Invalid negative or zero downstream stream width with ICALC < 2 (WIDTH2 < 0)';
      FirstError := False;
  end;

  if ICALC = 0 then
  begin
    // test stage
    ErrorFound := False;
    if AlternateExportTemplate then
    begin
      for Index := 0 to ReachList.Count -1 do
      begin
        Reach:= ReachList[Index];
        if Reach.Reach.Stage[TimeIndex] < Reach.Reach.StreamBedTop[TimeIndex] then
        begin
          ErrorFound := True;
          Break;
        end;
      end;
    end
    else
    begin
      if UpstreamStage[TimeIndex] < UpstreamBedElevation[TimeIndex] then
      begin
        ErrorFound := True;
      end
    end;
    if ErrorFound then
    begin
        AddCommaIfNeeded;
        ErrorMessage := ErrorMessage + 'Warning: negative upstream stream depth (DEPTH1 < 0)';
        FirstError := False;
    end;

    if not AlternateExportTemplate and
      (DownstreamStage[TimeIndex] < DownstreamBedElevation[TimeIndex]) then
    begin
        AddCommaIfNeeded;
        ErrorMessage := ErrorMessage + 'Warning: negative downstream stream depth (DEPTH2 < 0)';
        FirstError := False;
    end;
  end;

  result := FirstError;
end;


function TStrSegment.Width(TimeIndex: integer;
  const Factor: double): double;
begin
  result := UpstreamWidth[TimeIndex]
    - (UpstreamWidth[TimeIndex] - DownstreamWidth[TimeIndex]) * Factor;

end;

procedure TStrSegment.WriteHydmod(const HydmodWriter: TListWriter);
var
  HydWriter : THydmodWriter;
  Seg : integer;
  Index : integer;
  StreamReachObject : TStrReachObject;
begin
  if HydmodStageObservation or HydmodFlowInObservation or
    HydmodFlowOutObservation or HydmodFlowIntoAquiferObservation then
  begin
    Seg := Number;
    HydWriter := HydmodWriter as THydmodWriter;
    for Index := 0 to ReachList.Count -1 do
    begin
      StreamReachObject := ReachList[Index];
      if HydmodStageObservation then
      begin
        Writeln(HydWriter.HydFile, 'STR ST C ', StreamReachObject.Reach.Layer,
          ' ', Seg, ' ', Index+1, ' ', HydmodLabel);
      end;
      if HydmodFlowInObservation then
      begin
        Writeln(HydWriter.HydFile, 'STR SI C ', StreamReachObject.Reach.Layer,
          ' ', Seg, ' ', Index+1, ' ', HydmodLabel);
      end;
      if HydmodFlowOutObservation then
      begin
        Writeln(HydWriter.HydFile, 'STR SO C ', StreamReachObject.Reach.Layer,
          ' ', Seg, ' ', Index+1, ' ', HydmodLabel);
      end;
      if HydmodFlowIntoAquiferObservation then
      begin
        Writeln(HydWriter.HydFile, 'STR SA C ', StreamReachObject.Reach.Layer,
          ' ', Seg, ' ', Index+1, ' ', HydmodLabel);
      end;

    end;
  end;
end;

procedure TStrSegment.WriteMT3DConcentrations(const StressPeriod: integer;
  const Lines: TStrings);
var
  ConcentrationString : string;
  SpeciesIndex : integer;
begin
  Assert(SpeciesCount >= 1);
  ConcentrationString :=
    TModflowWriter.FixedFormattedReal(MT3D_Concentrations[StressPeriod-1,0], 10)
    + TModflowWriter.FixedFormattedInteger(21, 10) + ' ';
  for SpeciesIndex := 0 to SpeciesCount-1 do
  begin
    ConcentrationString := ConcentrationString + TModflowWriter.FreeFormattedReal
      (MT3D_Concentrations[StressPeriod-1,SpeciesIndex]);
  end;
  ReachList.WriteMT3DConcentrations(Lines, ConcentrationString);
end;

procedure TStrSegment.WriteSegment(const StreamWriter: TStrWriter; const TimeIndex : integer);
begin
  ReachList.Write(StreamWriter,TimeIndex);
end;

{ TStrSegmentList }

procedure TStrSegmentList.Write(const StreamWriter: TStrWriter;
  const TimeIndex : integer; var ErrorsFound : boolean) ;
var
  Index : integer;
  Segment : TStrSegment;
  StreamErrors : TStringList;
  ErrorMessage : string;
begin
  ErrorsFound := False;
  StreamErrors := TStringList.Create;
  StreamErrors.Add('');
  try
    for Index := 0 to Count -1 do
    begin
      Segment := Items[Index] as TStrSegment;

      if not Segment.ValuesAreValid(ErrorMessage, TimeIndex,
        StreamWriter.ICALC, StreamWriter.AlternateExportTemplate) then
      begin
        StreamErrors.Add(ErrorMessage);
      end;
      Segment.WriteSegment(StreamWriter, TimeIndex);
    end;
  finally
    if StreamErrors <> nil then
    begin
      if StreamErrors.Count > 1 then
      begin
        if ErrorMessages <> nil then
        begin
          ErrorMessages.AddStrings(StreamErrors);
        end;
        ErrorsFound := True;
      end;
    end;
    StreamErrors.Free;
  end;
end;

procedure TStrSegmentList.WriteMT3DConcentrations(
  const StressPeriod: integer; const Lines: TStrings);
var
  Index : integer;
  Segment : TStrSegment;
begin
  for Index := 0 to Count -1 do
  begin
    Segment := Items[Index] as TStrSegment;
    Segment.WriteMT3DConcentrations(StressPeriod, Lines);
  end;
end;

{ TStrParameterObject }

constructor TStrParameterObject.Create;
var
  TimeCount : integer;
begin
  inherited;
  Instances := TStringList.Create;
  TimeCount := frmModflow.dgTime.RowCount -1;
  SegmentList := TStrSegmentList.Create;
  SetLength(Active,TimeCount);
  SetLength(InstanceNamesUsed, TimeCount);
end;

destructor TStrParameterObject.Destroy;
begin
  Instances.Free;
  SegmentList.Free;
  inherited;
end;

procedure TStrParameterObject.SetName(const Value: ShortString);
var
  Index : integer;
begin
  FName := UpperCase(Trim(Value));
  if Length(FName) > 10 then
  begin
    SetLength(FName,10)
  end;
  for Index := 1 to Length(FName) do
  begin
    if FName[Index] = ' ' then
    begin
      FName[Index] := '_';
    end;
  end;
end;

procedure TStrParameterObject.Write(StreamWriter: TStrWriter;
  var ErrorsFound : boolean);
var
  Index : integer;
  ReachCount : integer;
  Segment : TStrSegment;
  TimeIndex : integer;
begin
  ReachCount := 0;
  for Index := 0 to SegmentList.Count -1 do
  begin
    Segment := SegmentList[Index] as TStrSegment;
    ReachCount := ReachCount + Segment.ReachList.Count;
  end;

  // data set 3
  System.Write(StreamWriter.FFile, Name, ' STR ',
    StreamWriter.FreeFormattedReal(Value),
    ReachCount);
  if Instances.Count > 0 then
  begin
    System.Write(StreamWriter.FFile, ' INSTANCES ', Instances.Count);
  end;


  Writeln(StreamWriter.FFile);

  if Instances.Count = 0 then
  begin
    SegmentList.Write(StreamWriter, 0, ErrorsFound);
  end
  else
  begin
    for TimeIndex := 0 to Instances.Count -1 do
    begin
      WriteLn(StreamWriter.FFile, Instances[TimeIndex]);
      SegmentList.Write(StreamWriter, TimeIndex, ErrorsFound);
    end;
  end;

end;

{ TStrReachList }

function TStrReachList.Add(StreamReach: TStrReachRecord): TStrReachObject;
begin
  result := TStrReachObject.Create;
  result.Reach := StreamReach;
  inherited Add(result);
end;

constructor TStrReachList.Create(const Segment: TStrSegment);
begin
  inherited Create;
  self.Segment := Segment
end;

function TStrReachList.GetItems(Index: Integer): TStrReachObject;
begin
  result := inherited Items[Index] as TStrReachObject;
end;

function TStrReachList.GetTotalLength: double;
var
  Index : integer;
  StreamReachObject : TStrReachObject;
begin
  result := 0;
  for Index := 0 to Count - 1 do
  begin
    StreamReachObject := Items[Index];
    result := result + StreamReachObject.Reach.ChannelLength;
  end;

end;

procedure TStrReachList.SetItems(Index: Integer;
  const Value: TStrReachObject);
begin
  inherited Items[Index] := Value;
end;

procedure TStrReachList.Write(StreamWriter: TStrWriter;
  Const TimeIndex : integer);
var
  Seg : integer;
  Index : integer;
  StreamReachObject : TStrReachObject;
  TotalLength : double;
  PreviousLength : double;
  CurrentLength : double;
  Stage : double;
  Conductance : double;
  Sbot : double;
  Stop : double;
  Factor : double;
  Width : double;
  Flow : double;
begin
  Assert(Segment <> nil);
  Seg := Segment.Number;

  TotalLength := GetTotalLength;

  PreviousLength := 0;
  for Index := 0 to Count - 1 do
  begin
    StreamReachObject := Items[Index];
    if Index = 0 then
    begin
      CurrentLength := 0;
    end
    else if Index = Count - 1 then
    begin
      CurrentLength := TotalLength;
    end
    else
    begin
      CurrentLength := PreviousLength
        + StreamReachObject.Reach.ChannelLength/2;
    end;

    if TotalLength = 0 then
    begin
      Factor := 1;
    end
    else
    begin
      Factor := CurrentLength/TotalLength;
    end;

    if Index > 0 then
    begin
      Flow := 0;
    end
    else if Segment.Tributaries.Count > 0 then
    begin
      Flow := -1;
    end
    else
    begin
      Flow := Segment.Flow[TimeIndex];
    end;

    if StreamWriter.AlternateExportTemplate then
    begin
      Stage := StreamReachObject.Reach.Stage[TimeIndex];
      Width := StreamReachObject.Reach.Width[TimeIndex];
      Sbot := StreamReachObject.Reach.StreamBedBottom[TimeIndex];
      Stop := StreamReachObject.Reach.StreamBedTop[TimeIndex];
    end
    else
    begin
      Stage := Segment.UpstreamStage[TimeIndex]
        - (Segment.UpstreamStage[TimeIndex]
           - Segment.DownstreamStage[TimeIndex])
           * Factor;

      Width := Segment.Width(TimeIndex, Factor);

      Sbot := Segment.UpstreamBedBottom[TimeIndex]
        - (Segment.UpstreamBedBottom[TimeIndex]
           - Segment.DownstreamBedBottom[TimeIndex])
           * Factor;

      Stop := Segment.UpstreamBedElevation[TimeIndex]
        - (Segment.UpstreamBedElevation[TimeIndex]
           - Segment.DownstreamBedElevation[TimeIndex])
           * Factor;

    end;

    if Sbot = Stop then
    begin
      raise EStreamError.Create('Error in Stream package: the top and bottom '
        + 'elevations of the stream reach in (Layer, Row, Column) = ('
        + IntToStr(StreamReachObject.Reach.Layer) + ', '
        + IntToStr(StreamReachObject.Reach.Row) + ', '
        + IntToStr(StreamReachObject.Reach.Column) + ') '
        + 'are the same.  This must be fixed before the Stream package input '
        + 'file can be exported.');
    end;


    if StreamWriter.AlternateExportTemplate then
    begin
      Conductance := StreamReachObject.Reach.HydraulicConductivity
        * StreamReachObject.Reach.ChannelLength
        * Width / (Stop - Sbot);
    end
    else
    begin
      Conductance := Segment.HydraulicConductivity
        * StreamReachObject.Reach.ChannelLength
        * Width / (Stop - Sbot);
    end;

    Writeln(StreamWriter.FFile,
      StreamWriter.FixedFormattedInteger(StreamReachObject.Reach.Layer, 5),
      StreamWriter.FixedFormattedInteger(StreamReachObject.Reach.Row, 5),
      StreamWriter.FixedFormattedInteger(StreamReachObject.Reach.Column, 5),
      StreamWriter.FixedFormattedInteger(Seg, 5),
      StreamWriter.FixedFormattedInteger(Index + 1, 5),