unit WriteNameFileUnit;

interface

uses Windows, Sysutils, StdCtrls, ANEPIE, WriteModflowDiscretization, WriteUZF;

// Fortran unit assignments
//const
//  kGlobal  =  9; // Global listing file
//  kList    = 10; // MODFLOW Listing file
//  kBas     = 11; // Basic Package File
//  kOC      = 12; //Output Control File
//  KBCF     = 13; // BCF File or LPF File
//  kRCH     = 14; // Recharge File
//  kRIV     = 15; // River File
//  kWEL     = 16; // Well File
//  kDRN     = 17; // Drain File
//  kGHB     = 18; // GHB File
//  kEVT     = 19; // EVT File
//  kSIP     = 20; // SIP File
//  kSOR     = 21; // SOR File
//  kBHD     = 22; // binary head file
//  kFHD     = 23; // formatted head file
//  kBDN     = 24; // binary drawdown file
//  kFDN     = 25; // formatted drawdown file
//  kRIVbdg  = 27; // River budget file
//  kRCHbdg  = 28; // Recharge budget file
//  kWELbdg  = 29; // Well budget file
//  kDRNbdg  = 30; // Drain budget file
//  kEVTbdg  = 31; // EVT budget file
//  kGHBbdg  = 32; // GHB budget file
//  kbdg     = 33; // BCF or LPF or combined budget file
//  kPCG     = 34; // PCG File
//  kDE4     = 35; // DE4 File
//  kSTRbdg1 = 36; // Stream budget file 1
//  kSTRbdg2 = 37; // Stream budget file 2
//  kHFB     = 38; // HFB file
//  kFHBbdg  = 39; // FHB budget file
//  kFHB     = 40; // FHB file
//  kSTR     = 41; // Stream file
//  kInHead  = 42; // Initial head source file
//  kDis     = 43; // discretization file
//  kMult    = 44; //Multiplier array File
//  kZone    = 45; //Zone array File
//  kObs     = 46; // Observation file
//  kHob     = 47; // head Observation file
//  kGbob    = 48; // GHB Observation file
//  kDrob    = 49; // Drain Observation file
//  kRvob    = 50; // River Observation file
//  kChob    = 51; // Constant head Observation file
//  kSensBin = 52; // Sensitivity binary file;
//  kSenAscii = 53; // Sensitivity ASCII file;
//  kSen     = 54; // Sensitivity input file
//  kPes     = 55; // Sensitivity input file
//  kMOC3D   = 56; // MOC3D information file
//  kAdvIOUTTT2 = 57; // output unit number for particle tracking positions in Advection observations;
//  kAdvObs  = 58; // Advection observations files
//  kLakeBdg  = 59; // Lake budget files
//  kLake  = 60; // Lake input files
//  kIBS  = 61; // IBS file
//  kIBSBdg  = 62; // IBS budget file
//# 63 IBS subsidence files
//# 64 IBS compaction files
//# 65 IBS preconsolidation head files
//  kRES  = 66; // RES file
//  kRESBdg  = 67; // RES budget file
//  kTLK  = 68; // TLK input file
//  kTLKBdg  = 69; // TLK budget file
//# 70 MOC3D information file
//  kTLKInRestart  = 71; // TLK input restart record
//  kTLKOutRestart  = 72; // TLK output restart record

//  kIUHEAD = 73;
  {IUHEAD of sensitivity file. kIUHEAD must be greater than the unit number of
  all other files that are used.}

resourcestring
  rsNam = '.nam';
  rsGlobal = '.lsg';
  rsList = '.lst';
  rsBAS = '.bas';
  rsOC = '.oc';
  rsBCF = '.bcf';
  rsLPF = '.lpf';
  rsWEL = '.wel';
  rsRCH = '.rch';
  rsDRN = '.drn';
  rsRIV = '.riv';
  rsEVT = '.evt';
  rsGHB = '.ghb';
  rsHFB = '.hfb';
  rsFHB = '.fhb';
  rsSTR = '.str';
  rsSIP = '.sip';
  rsSOR = '.sor';
  rsPCG = '.pcg';
  rsDE4 = '.de4';
  rsMOC3D = '.gwt';
  rsFhd = '.fhd';
  rsBhd = '.bhd';
  rsFdn = '.fdn';
  rsBdn = '.bdn';
  rsBud = '.bud';
  rsBwe = '.bwe';
  rsBrc = '.brc';
  rsBdr = '.bdr';
  rsBri = '.bri';
  rsBev = '.bev';
  rsBgh = '.bgh';
  rsBfh = '.bfh';
  rsBsf1 = '.bsf1';
  rsBsf2 = '.bsf2';
  rsBst1 = '.bst1';
  rsBst2 = '.bst2';
  rsDis = '.dis';
  rsMult = '.mul';
  rsZone = '.zon';
  rsObs = '.obs';
  rsHob = '.ohd'; //'.hob';
  rsGbob = '.ogb'; //'.gbob';
  rsDrob = '.odr'; //'.drob';
  rsRvob = '.orv'; //'.rvob';
  rsChob = '.och'; //'.chob';
  rsSen = '.sen';
  rsSenb = '.seb';
  rsSena = '.sea';
  rsPes = '.pes';
  rsOad = '.oad'; // observations of advection;
  rsPart = '.prt'; // particle locations;
  rsLak = '.lak'; // lake package
  rsLakbdg = '.blk'; // lake package budget file
  rsRes = '.res'; // reservoir package
  rsResbdg = '.brs'; // reservoir package budget file
  rsTks = '.tks'; // Transient leakage package restart file.
  rsGage = '.gag'; // Gage input file
  rsGageOut = '.ggo'; // Gage input file
  rsOut = '.out'; // MOC3D output file
  rsMoc = '.moc'; // main MOC3D input file
  rsCrc = '.crc'; // Concentration of recharge
  rsCn2 = '.cn2';
  rsCna = '.cna';
  rsCnb = '.cnb';
  rsVla = '.vla';
  rsVlb = '.vlb';
  rsPta = '.pta';
  rsPtb = '.ptb';
  rsAge = '.age'; // MOC3D Age file
  rsDp = '.dp'; // MOC3D Double Porosity file
  rsDk = '.dk'; // MOC3D Simple Reactions file
  rsMObs = '.mob'; // MOC3D observation file
  rsOba = '.oba';
  rsSFR = '.sfr';
  rsStob = '.ost';
  rsETS = '.ets';
  rsBet = '.bet';
  rsDRT = '.drt';
  rsBdt = '.bdt';
  rsOdt = '.odt';
  rsLMG = '.lmg';
  rsIBS = '.ibs'; // Interbed storage package input
  rsISS = '.iss'; // Interbed storage package subsidence
  rsISC = '.isc'; // Interbed storage package compaction
  rsISH = '.ish'; // Interbed storage package preconsolidation head
  rsIBSB = '.ibsb'; // Interbed storage package budget file
  rsHYD = '.hyd'; // HYDMOD input;
  rsHYO = '.hyo'; // HYDMOD output;
  rsCHFB = '.chfb';
  rsCHD = '.chd';
  rsHUF = '.huf'; // HUF package input file.
  rsHHD = '.hhd'; // HUF formatted heads
  rsHBH = '.hbh'; // HUF binary heads
  rsBTN = '.btn'; // MT3D basic transport file
  rsADV = '.adv'; // MT3D advection package
  rsDSP = '.dsp'; // MT3D dispersion package
  rsRCT = '.rct'; // MT3D reaction package
  rsGCG = '.gcg'; // MT3D Generalized Conjugate Gradient Solver
  rsSSM = '.ssm'; // MT3D Source and Sink mixing package.
  rsMnm = '.mnm'; // MT3D Name file
  rsMLS = '.mls'; // MT3D List file
  rsTOB = '.tob'; // MT3D Transportation Observation file.
  rsLMT = '.lmt'; // input file for MT3D link in MODFLOW-2000
  rsFTL = '.ftl'; // Flow file for MT3D produced by MODFLOW-2000
  rsUCN = '.ucn'; // unformatted MT3D concentration file
  rsCNF = '.cnf'; // MT3D grid configuratin file.
  rsMTO = '.mto'; // MT3DMS observation file
  rsMAS = '.mass'; // MT3DMS mass budget summary
  rsMNW = '.mnw'; // Multi-Node well package
  rsMNW2 = '.mnw2'; // Multi-Node well package version 2
  rsMNWI = '.mnwi'; // Multi-Node well information package
  rsMNWIOut = '.mnwiOut'; // Multi-Node well information package output file
  rsMnwiWel = '.mnwiWel'; // Multi-Node well information package  Well File
  rsMnwiQSum = '.mnwiQsum'; // Multi-Node well information package
  rsMnwiQByNd = '.mnwiByNd'; // Multi-Node well information package
  rsWL1 = '.wl1'; // Well 1 style input file generated by MNW
  rsBYN = '.byn'; // BYNODE output file from MNW package
  rsQSU = '.qsu'; // QSUM output file from MNW package
  rsBMN = '.bmn'; // Budget file for Multi-Node Well package
  rsBMN2 = '.bmn2'; // Budget file for Multi-Node Well package
  rsDAF = '.daf'; // DAFLOW input file
  rsDAFG = '.dafg'; // DAFLOW link to groundwater file
  rsDAFF = '.daff'; // DAFLOW output file.
  rsDAB = '.dab'; // DAFLOW budget file.
  rsBFLX = '.bflx'; // BFLX package input file
  rsLVDA = '.lvda'; // LVDA input file for HUF package
  rsHFLW = '.hflw'; // interpolated HUF Flows
  rsKDEP = '.kdep'; // KDEP input file for HUF package
  rsSUB = '.sub'; // input file for SUB package
  rsSUBON = '.subo'; // binary output file for SUB package (An integer get appended to this.)
  rsSUBB = '.subb'; // budget file for SUB package
  rsSUBR = '.subr'; // SUB restart file
  rsVDF = '.vdf'; // Variable Density Flow input file (SEAWAT)
  rsGMG = '.gmg'; // Geometeric Multigrid package input file.
  rsGMGMHC = '.gmgmhc'; // Maximum head changed for Geometeric Multigrid package.
  rsIPDA = '.ipda'; // GWT IPDA file
  rsIPDL = '.ipdl'; // GWT IPDL file
  rsCBDY = '.cbdy'; // GWT CBDY file
  rsDECVAR = '.decvar'; // GWM Decision Variables (DECVAR) file.
  rsOBJFNC = '.objfnc'; // GWM Objective Functions (OBJFNC) file.
  rsVARCON = '.varcon'; // GWM Variable constraints (VARCON) file.
  rsSUMCON = '.sumcon'; // GWM Linear summation constrains (SUMCON) file.
  rsHEDCON = '.hedcon'; // GWM Head constraints file.
  rsSTRCON = '.strmcon'; // GWM stream constraints file.
  rsSTAVAR = '.stavar'; // GWM State Variables file.
  rsSOLN = '.soln'; // GWM Solution and Output control file.
  rsRSP = '.rsp'; // GWM Response matrix file.
  rsMSP = '.msp'; // GWM MSP file.
  rsGWM = '.gwm'; // GWM GWM file
  rsMNWO = '.mnwo'; // MNW observation file input.
  rsMNWO_Out = '.mnwo_out'; // MNW observation file output.
  rsPTOB = '.ptob'; //GWT Particle Observations file
  rsPTO = '.pto'; // Particle Observations output file
  rsMPTO = '.mpto'; // Multi-Node Well Particle Observations output file
  rsSSTR = '.sstr'; // GWT starting Stress Period File.
  rsPRTP = '.prtp'; // GWT PRTP file.
  rsGWMWFILE = '.GWMWFILE.wel'; // Well-package input file generated by GWM.
  rsUZF = '.uzf'; // input file for UZF package.
  rsUzfo = '.uzfo'; // output file for UZF package.
  rsISGOUT = '.isgout'; //output file for MNW concentrations in MT3DMS
  rsSWT = '.swt'; // SWT package input file.
  rsSWTOUT = '.swt_out'; // SWT package output file.
  rsSWTB = '.swtb'; // SWT package budget file.
  rsOCN = '.OCN'; // MT3DMS Concentration Observation output
  rsMFX = '.MFX'; // MT3DMS flux Observation output
  rsPST = '.PST'; // MT3DMS binary Observation output
  rsVSC = '.vsc'; // SEAWAT Viscosity package.
  rsMBRP = '.mbrp'; // GWT MBRP output file
  rsMBIT = '.mbit'; // GWT MBIT output file
  rsCCBD = '.ccbd'; // GWT CCBD input file
  rsVBAL = '.vbal'; // GWT CCBD input file

type
  TNameFileWriter = class(TModflowWriter)
  private
    procedure WriteMT3DInputFileNames(root: string; const IsSeaWat: boolean);
  public
    procedure WriteNameFile(root: string; UzfWriter: TUzfWriter);
    procedure WriteObservationFile(root: string);
    procedure WriteBFFile(root: string);
    function WriteBatchFile(CurrentModelHandle: ANE_PTR;
      UseCalibration: boolean; Root: string): string;
    procedure DeleteAFile(FileName: string);
    procedure WriteMOC3DNameFile(root: string; NumObs: integer);
    function WriteYcintBatchFile(CurrentModelHandle: ANE_PTR;
      UseCalibration: boolean; Root: string): string;
    function WriteBealeBatchFile(CurrentModelHandle: ANE_PTR;
      UseCalibration: boolean; Root: string): string;
    procedure WriteMT3DNameFile(root: string);
    function WriteMT3DBatchFile(CurrentModelHandle: ANE_PTR;
      UseCalibration: boolean; Root: string): string;
    procedure WriteGWM_NameFile(root: string);
  end;

function UseInitialHeads: boolean;
function ExportSensitivityBinaryfile: boolean;
function ExportSensitivityAsciifile: boolean;
function UseZones: boolean;
function UseMultipliers: boolean;
function UseObservations: boolean;
function UseIBS: boolean;
function UseSUB: boolean;
function UseHYD: boolean;
function ExportCHD: boolean;
function UseMt3dLinkInput: boolean;
function UseMNW: boolean;
function UseMNW2: boolean;
function UseMNWI: boolean;
function UseDaflow: boolean;
function UseBFLX: boolean;
function UseFHB: boolean;
function UseCHD: boolean;
function UseSFR: boolean;
function ExportVariableDensityFlow: boolean;
function UseIntegeratedMassTransport: boolean;
function UseGHBObservations: boolean;
function UseDrainObservations: boolean;
function UseDrainReturnObservations: boolean;
function UseRiverObservations: boolean;
function UseHeadFluxObservations: boolean;
function UseHeadObservations: boolean;
function UseAdvectionObservations: boolean;
function UseIPDA: boolean;
function UseIPDL: boolean;
function UseCBDY: boolean;
function UseGWM: boolean;
function UsePTOB: boolean;
function UseCCBD: boolean;
function UseVBAL: Boolean;
function UseSWT: boolean;
function UseViscosityPackage: boolean;
function ExportViscosity: boolean;

implementation

uses Variables, ModflowUnit, ProgressUnit, OptionsUnit, ANECB, UnitNumbers,
  WriteGageUnit, WriteModflowFilesUnit, WriteGwtParticleObservation,
  WriteSwtUnit;

function UseMt3dLinkInput: boolean;
begin
  result := frmModflow.cbMT3D.Checked and frmModflow.cbUseMT3D.Checked;
end;

function UseZones: boolean;
begin
  result := StrToInt(frmModflow.adeZoneCount.Text) > 0;
end;

function UseMultipliers: boolean;
begin
  result := StrToInt(frmModflow.adeMultCount.Text) > 0;
end;

function UseLPF: boolean;
begin
  result := frmModflow.rgFlowPackage.ItemIndex = 1;
end;

function UseHUF: boolean;
begin
  result := frmModflow.rgFlowPackage.ItemIndex = 2;
end;

function UseLVDA: boolean;
begin
  result := UseHUF and frmModflow.HufParameterUsed(hufLVDA)
end;

function UseKDEP: boolean;
begin
  result := UseHUF and frmModflow.HufParameterUsed(hufKDEP)
end;

function UseAge: boolean;
begin
  result := frmModflow.cbAge.Checked;
//    and (frmModflow.rgMOC3DSolver.ItemIndex <> 2);
end;

function UseDoublePorosity: boolean;
begin
  result := frmModflow.cbDualPorosity.Checked
    and (frmModflow.rgMOC3DSolver.ItemIndex <> 2);
end;

function UseSimpleReactions: boolean;
begin
  result := frmModflow.cbSimpleReactions.Checked
    and (frmModflow.rgMOC3DSolver.ItemIndex <> 2);
end;

function UseBCF: boolean;
begin
  result := frmModflow.rgFlowPackage.ItemIndex = 0;
end;

function UseRCH: boolean;
begin
  result := frmModflow.cbRCH.Checked
    and frmModflow.cbRCHRetain.Checked;
end;

function UseBFLX: boolean;
begin
  result := frmModflow.cbMOC3D.Checked and frmModflow.cbBFLX.Checked
end;

function UseIPDA: boolean;
begin
  result := frmModflow.cbMOC3D.Checked
    and frmModflow.WeightedParticlesUsed
    and (frmModflow.comboSpecifyParticles.ItemIndex = 1)
end;

function UseCBDY: boolean;
begin
  result := frmModflow.cbMOC3D.Checked
    and frmModflow.cbCBDY.Checked;
end;

function UsePTOB: boolean;
begin
  result := frmModflow.cbMOC3D.Checked
    and frmModflow.cbParticleObservations.Checked;
end;

function UseCCBD: boolean;
begin
  result := frmModflow.cbMOC3D.Checked
    and frmModflow.cbCCBD.Checked;
end;

function UseVBAL: Boolean;
begin
  result := frmModflow.cbMOC3D.Checked
    and frmModflow.cbVBAL.Checked;
end;

function UseIPDL: boolean;
begin
  result := frmModflow.cbMOC3D.Checked
    and frmModflow.WeightedParticlesUsed
    and (frmModflow.comboSpecifyParticles.ItemIndex = 2)
end;

function UseEVT: boolean;
begin
  result := frmModflow.cbEVT.Checked
    and frmModflow.cbEVTRetain.Checked;
end;

function UseETS: boolean;
begin
  result := frmModflow.cbETS.Checked
    and frmModflow.cbETSRetain.Checked;
end;

function UseRiv: boolean;
begin
  result := frmModflow.cbRIV.Checked
    and frmModflow.cbRIVRetain.Checked;
end;

function UseWEL: boolean;
begin
  result := frmModflow.cbWEL.Checked and frmModflow.cbWELRetain.Checked;
end;

function UseMNW: boolean;
begin
  result := frmModflow.cbMNW.Checked and frmModflow.cbMNW_Use.Checked;
end;

function UseMNW2: boolean;
begin
  result := frmModflow.cbMnw2.Checked and frmModflow.cbUseMnw2.Checked;
end;

function UseMNWI: boolean;
begin
  result := UseMNW2
    and frmModflow.cbMnwi.Checked and frmModflow.cbUseMnwi.Checked;
end;

function UseDaflow: boolean;
begin
  result := frmModflow.cbDAFLOW.Checked and frmModflow.cbUseDAFLOW.Checked;
end;

function ExportDaflowBudget: boolean;
begin
  result := UseDaflow and frmModflow.cbFlowDaflow.Checked
end;


function UseDRN: boolean;
begin
  result := frmModflow.cbDRN.Checked and frmModflow.cbDRNRetain.Checked;
end;

function UseDRT: boolean;
begin
  result := frmModflow.cbDRT.Checked and frmModflow.cbDRTRetain.Checked;
end;

function UseGHB: boolean;
begin
  result := frmModflow.cbGHB.Checked and frmModflow.cbGHBRetain.Checked;
end;

function UseHFB: boolean;
begin
  result := frmModflow.cbHFB.Checked and frmModflow.cbHFBRetain.Checked;
end;

function UseFHB: boolean;
begin
  result := frmModflow.cbFHB.Checked and frmModflow.cbFHBRetain.Checked;
end;

function UseLak: boolean;
begin
  result := frmModflow.cbLAK.Checked
    and frmModflow.cbLAKRetain.Checked;
end;

function UseReservoir: boolean;
begin
  result := frmModflow.cbRES.Checked
    and frmModflow.cbRESRetain.Checked;
end;

function UseSIP: boolean;
begin
  result := frmMODFLOW.rgSolMeth.ItemIndex = Ord(scSIP);
end;

function UseSOR: boolean;
begin
  result := frmMODFLOW.rgSolMeth.ItemIndex = Ord(scSOR);
end;

function UseDE4: boolean;
begin
  result := frmMODFLOW.rgSolMeth.ItemIndex = Ord(scDE4);
end;

function UsePCG2: boolean;
begin
  result := frmMODFLOW.rgSolMeth.ItemIndex = Ord(scPCG2);
end;

function UseLMG: boolean;
begin
  result := frmMODFLOW.rgSolMeth.ItemIndex = Ord(scLMG);
end;

function UseGMG: boolean;
begin
  result := frmMODFLOW.rgSolMeth.ItemIndex = Ord(scGMG);
end;

function UseGMG_MaxHeadChangeOutput: boolean;
begin
  result := UseGMG and frmModflow.cbGMG_IUNITMHC.Checked;
end;

function UseInitialHeads: boolean;
begin
  result := frmModflow.cbInitial.Checked
    and (frmModflow.comboBinaryInitialHeadChoice.ItemIndex = 0);
end;

function UseObservations: boolean;
begin
  result := frmMODFLOW.cbObservations.Checked;
end;

function ExportObservations: boolean;
begin
  result := UseObservations and frmMODFLOW.rbMODFLOW2000.Checked;
end;

function Use_SSTR: boolean;
var
  IPERGWT: integer;
begin
  IPERGWT := StrToInt(frmModflow.adeStartTransportStressPeriod.Text);
  result := IPERGWT > 1;
end;

function Use_PRTP: boolean;
begin
  result := frmModflow.cbAdjustParticleLocations.Enabled
    and frmModflow.cbAdjustParticleLocations.Checked;
end;

function UseHeadObservations: boolean;
var
  Index: integer;
  UseHeadObs, UseWeightedHeadObs: boolean;
begin
  result := UseObservations and (frmMODFLOW.cbHeadObservations.Checked
    or frmMODFLOW.cbWeightedHeadObservations.Checked);
  if result then
  begin
    UseHeadObs := False;
    if frmMODFLOW.cbHeadObservations.Checked then
    begin
      for Index := 0 to frmMODFLOW.clbObservationLayers.Items.Count -1 do
      begin
        if frmMODFLOW.clbObservationLayers.State[Index] = cbChecked then
        begin
          UseHeadObs := True;
          break;
        end;
      end;
    end;
    UseWeightedHeadObs := False;
    if frmMODFLOW.cbWeightedHeadObservations.Checked then
    begin
      for Index := 0 to frmMODFLOW.clbWeightedObservationLayers.Items.Count -1 do
      begin
        if frmMODFLOW.clbWeightedObservationLayers.State[Index] = cbChecked then
        begin
          UseWeightedHeadObs := True;
          break;
        end;
      end;
    end;
    result := UseHeadObs or UseWeightedHeadObs;
  end;
end;

function UseHeadFluxObservations: boolean;
var
  Index: integer;
begin
  result := UseObservations and frmMODFLOW.cbHeadFluxObservations.Checked;
  if result then
  begin
    result := False;
    for Index := 0 to frmMODFLOW.clbPrescribeHeadFlux.Items.Count -1 do
    begin
      if frmMODFLOW.clbPrescribeHeadFlux.State[Index] = cbChecked then
      begin
        result := True;
        break;
      end;
    end;
  end;
end;

function UseDrainObservations: boolean;
var
  Index: integer;
begin
  result := UseObservations and frmMODFLOW.cbDRNObservations.Checked and UseDRN;
  if result then
  begin
    result := False;
    for Index := 0 to frmMODFLOW.clbDrainObservations.Items.Count -1 do
    begin
      if frmMODFLOW.clbDrainObservations.State[Index] = cbChecked then
      begin
        result := True;
        break;
      end;
    end;
  end;
end;

function UseDrainReturnObservations: boolean;
var
  Index: integer;
begin
  result := UseObservations and frmMODFLOW.cbDRTObservations.Checked and UseDRT;
  if result then
  begin
    result := False;
    for Index := 0 to frmMODFLOW.clbDrainReturnObservations.Items.Count -1 do
    begin
      if frmMODFLOW.clbDrainReturnObservations.State[Index] = cbChecked then
      begin
        result := True;
        break;
      end;
    end;
  end;
end;

function UseGHBObservations: boolean;
var
  Index: integer;
begin
  result := UseObservations and frmMODFLOW.cbGHBObservations.Checked and UseGHB;
  if result then
  begin
    result := False;
    for Index := 0 to frmMODFLOW.clbGHB_Observations.Items.Count -1 do
    begin
      if frmMODFLOW.clbGHB_Observations.State[Index] = cbChecked then
      begin
        result := True;
        break;
      end;
    end;
  end;
end;

function UseRiverObservations: boolean;
var
  Index: integer;
begin
  result := UseObservations and frmMODFLOW.cbRIVObservations.Checked and UseRIV;
  if result then
  begin
    result := False;
    for Index := 0 to frmMODFLOW.clbRiverObservations.Items.Count -1 do
    begin
      if frmMODFLOW.clbRiverObservations.State[Index] = cbChecked then
      begin
        result := True;
        break;
      end;
    end;
  end;
end;

function UseAdvectionObservations: boolean;
//var
//  Index: integer;
//  StartPointsUsed, ObsUsed: boolean;
begin
  result := UseObservations and frmMODFLOW.cbAdvObs.Checked
    and frmMODFLOW.AdvectionObservationsDefined;
{  if result then
  begin
    ObsUsed := False;
    for Index := 0 to frmMODFLOW.clbAdvObs.Items.Count -1 do
    begin
      if frmMODFLOW.clbAdvObs.State[Index] = cbChecked then
      begin
        ObsUsed := True;
        break;
      end;
    end;
    StartPointsUsed := False;
    for Index := 0 to frmMODFLOW.clbAdvObsStartPoints.Items.Count -1 do
    begin
      if frmMODFLOW.clbAdvObsStartPoints.State[Index] = cbChecked then
      begin
        StartPointsUsed := True;
        break;
      end;
    end;
    result := ObsUsed and StartPointsUsed;
  end; }
end;

function UseMOC3D: boolean;
begin
  result := frmModflow.cbMOC3D.Checked and frmModflow.cbUseSolute.Checked;
end;

{function UseMNWO: boolean;
begin
  result := UseMNW and UseMOC3D
    and (frmModflow.comboMnwObservations.ItemIndex >= 1)
    and (frmModflow.MultiNodeWellNames.Count > 0);
end; }


function UseSensitivity: boolean;
begin
  result := frmModflow.cbSensitivity.Checked;
end;

function UseParameterEstimation: boolean;
begin
  result := frmModflow.cbParamEst.Checked
    and UseSensitivity and UseObservations;
end;

function UseVariableDensityFlow: boolean;
begin
  result := frmModflow.cbSeaWat.Checked
    and frmModflow.cbSW_VDF.Checked
    and frmModflow.rbMODFLOW2000.Checked;
end;

function ExportVariableDensityFlow: boolean;
begin
  result := UseVariableDensityFlow
    and frmModflow.cbExpVdf.Checked;
end;

function UseViscosityPackage: boolean;
begin
  result := frmModflow.cbSeaWat.Checked
    and frmModflow.cbSW_VDF.Checked
    and frmModflow.cbSeawatViscosity.Checked
    and frmModflow.rbMODFLOW2000.Checked;
end;

function ExportViscosity: boolean;
begin
  result := UseViscosityPackage
    and frmModflow.cbExpVsc.Checked;
end;

function UseIntegeratedMassTransport: boolean;
begin
  result := frmModflow.cbSeaWat.Checked
    and frmModflow.cbMT3D.Checked
    and frmModflow.rbMODFLOW2000.Checked
    and frmModflow.cbSW_MT3D.Checked;
end;

function ExportFormattedHeads: boolean;
begin
  result := frmModflow.comboExportHead.ItemIndex = 1;
end;

function ExportBinaryHeads: boolean;
begin
  result := frmModflow.comboExportHead.ItemIndex = 2;
end;

function ExportFormattedDrawdown: boolean;
begin
  result := frmModflow.comboExportDrawdown.ItemIndex = 1;
end;

function ExportBinaryDrawdown: boolean;
begin
  result := frmModflow.comboExportDrawdown.ItemIndex = 2;
end;

function ExportBCFBudget: boolean;
begin
  result := frmModflow.cbFlowBCF.Checked
    and UseBCF;
end;

function ExportLPFBudget: boolean;
begin
  result := frmModflow.cbFlowLPF.Checked
    and UseLPF;
end;

function ExportHUFBudget: boolean;
begin
  result := frmModflow.cbFlowHUF.Checked
    and UseHUF;
end;

function ExportMNWBudget: boolean;
begin
  result := UseMNW and frmModflow.cbFlowMNW.Checked
end;

function ExportMnw2Budget: boolean;
begin
  result := UseMNW2 and frmModflow.cbFlowMnw2.Checked
end;

function ExportWELBudget: boolean;
begin
  result := UseWEL and frmModflow.cbFlowWel.Checked
end;

function ExportRCHBudget: boolean;
begin
  result := UseRCH and frmModflow.cbFlowRCH.Checked
end;

function ExportDRNBudget: boolean;
begin
  result := UseDRN and frmModflow.cbFlowDrn.Checked
end;

function ExportDRTBudget: boolean;
begin
  result := UseDRT and frmModflow.cbFlowDrt.Checked
end;

function ExportRIVBudget: boolean;
begin
  result := UseRIV and frmModflow.cbFlowRiv.Checked
end;

function ExportEVTBudget: boolean;
begin
  result := UseEVT and frmModflow.cbFlowEvt.Checked
end;

function ExportETSBudget: boolean;
begin
  result := UseETS and frmModflow.cbFlowETS.Checked
end;

function ExportGHBBudget: boolean;
begin
  result := UseGHB and frmModflow.cbFlowGHB.Checked
end;

function UseSFR: boolean;
begin
  result := frmModflow.cbSFR.Checked
    and frmModflow.cbSFRRetain.Checked;
end;

function ExportSFRBudget1: boolean;
begin
  result := UseSFR and frmModflow.cbFlowSfr.Checked
end;

function ExportSFRBudget2: boolean;
begin
  result := UseSFR and frmModflow.cbFlowSfr2.Checked
end;

function ExportSTRBudget1: boolean;
begin
  result := StreamUsed and frmModflow.cbFlowSTR.Checked
end;

function ExportSTRBudget2: boolean;
begin
  result := StreamUsed and frmModflow.cbFlowSTR2.Checked
end;

function ExportLakeBudget: boolean;
begin
  result := UseLak and frmModflow.cbFlowLak.Checked
end;

function ExportReservoirBudget: boolean;
begin
  result := UseReservoir and frmModflow.cbFlowRES.Checked
end;

function ExportFHBBudget: boolean;
begin
  result := UseFHB and frmModflow.cbFlowFhb.Checked
end;

function ExportSensitivityBinaryfile: boolean;
begin
  result := UseSensitivity and frmModflow.cbSensBinary.Checked
    and not UseParameterEstimation;
end;

function ExportSensitivityAsciifile: boolean;
begin
  result := UseSensitivity and frmModflow.cbSensPrint.Checked
    and not UseParameterEstimation;
end;

function UseIBS: boolean;
begin
  result := frmMODFLOW.cbIBS.Checked and frmMODFLOW.cbUseIBS.Checked;
end;

function UseSUB: boolean;
begin
  result := frmMODFLOW.cbSUB.Checked and frmMODFLOW.cbUseSUB.Checked;
end;

function UseSWT: boolean;
begin
  result := frmMODFLOW.cbSWT.Checked and frmMODFLOW.cbUseSwt.Checked;
end;

function ExportIBSBudget: boolean;
begin
  result := UseIBS and frmModflow.cbFlowIBS.Checked
end;

function ExportSUBBudget: boolean;
begin
  result := UseSUB and frmModflow.cbFlowSUB.Checked
end;

function ExportSWTBudget: boolean;
begin
  result := UseSWT and frmModflow.cbFlowSWT.Checked
end;

function UseHYD: boolean;
begin
  result := frmMODFLOW.cbHYD.Checked and frmMODFLOW.cbHYDRetain.Checked;
end;

function UseCHD: boolean;
begin
  result := frmMODFLOW.cbCHD.Checked and frmMODFLOW.cbCHDRetain.Checked;
end;

function ExportCHD: boolean;
begin
  result := UseCHD and frmMODFLOW.cbExpCHD.Checked;
end;

function UseGWM: boolean;
begin
  result := (frmModflow.rbMODFLOW2000.Checked or frmModflow.rbMODFLOW2005.Checked)
    and frmModflow.cb_GWM.Checked
    and (frmModflow.rbRunGWM.Checked or frmModflow.rbCreateGWM.Checked);
end;

function ExportCombinedBudgetFile: boolean;
begin
  result := frmModflow.cbOneFlowFile.Checked and
    (ExportBCFBudget or
    ExportLPFBudget or
    ExportWELBudget or
    ExportRCHBudget or
    ExportDRNBudget or
    ExportRIVBudget or
    ExportEVTBudget or
    ExportGHBBudget or
    ExportSFRBudget1 or
    ExportFHBBudget or
    ExportDRTBudget or
    ExportETSBudget or
    ExportLakeBudget or
    ExportReservoirBudget or
    ExportSTRBudget1 or
    ExportIBSBudget or
    ExportDaflowBudget or
    ExportHUFBudget or
    ExportLakeBudget or
    ExportMNWBudget or
    ExportMnw2Budget or
    ExportSUBBudget);
end;

{ TNameFileWriter }

procedure TNameFileWriter.DeleteAFile(FileName: string);
begin
  FileName := GetCurrentDir + '\' + FileName;
  if FileExists(FileName) then
  begin
    DeleteFile(FileName);
  end;
end;

function TNameFileWriter.WriteYcintBatchFile(CurrentModelHandle: ANE_PTR;
  UseCalibration: boolean; Root: string): string;
var
  FileName: string;
  Path: string;
  ProjectOptions: TProjectOptions;
  GridLayerHandle: ANE_PTR;
  GridLayerName: string;
  Directory: ANE_STR;
  StringToEvaluate: string;
  STR: ANE_STR;
  NameFile: string;
begin
  FileName := GetCurrentDir + '\YCINT.BAT';
  result := FileName;
  AssignFile(FFile, FileName);
  try
    if ContinueExport then
    begin
      Rewrite(FFile);
      Path := frmMODFLOW.adeYcintPath.Text;
      NameFile := frmMODFLOW.adeFileName.Text + rsNam;

      Write(FFile, Path, ' ', NameFile);
      Writeln(FFile);
      if UseCalibration then
      begin
        GridLayerName := ModflowTypes.GetGridLayerType.WriteNewRoot;
        ProjectOptions := TProjectOptions.Create;
        try
          GridLayerHandle := ProjectOptions.GetLayerByName
            (CurrentModelHandle, GridLayerName);

          StringToEvaluate := 'GetMyDirectory()';

          GetMem(STR, Length(StringToEvaluate) + 1);
          try
            StrPCopy(STR, StringToEvaluate);
            ANE_EvaluateStringAtLayer(CurrentModelHandle, GridLayerHandle,
              kPIEString, STR, @Directory);
            ANE_ProcessEvents(CurrentModelHandle);
          finally
            FreeMem(STR);
          end;

          WriteLn(FFile, string(Directory), 'WaitForMe.exe');
          WriteLn(FFile, string(Directory), 'SelectChar.exe');

        finally
          ProjectOptions.Free;
        end;
      end
      else
      begin
        Writeln(FFile, 'Pause');
      end;

      Flush(FFile);

    end;
  finally
    CloseFile(FFile);
  end;
end;

function TNameFileWriter.WriteBealeBatchFile(CurrentModelHandle: ANE_PTR;
  UseCalibration: boolean; Root: string): string;
var
  FileName: string;
  Path: string;
  ProjectOptions: TProjectOptions;
  GridLayerHandle: ANE_PTR;
  GridLayerName: string;
  Directory: ANE_STR;
  StringToEvaluate: string;
  STR: ANE_STR;
  NameFile: string;
begin
  FileName := GetCurrentDir + '\BEALE.BAT';
  result := FileName;
  AssignFile(FFile, FileName);
  try
    if ContinueExport then
    begin
      Rewrite(FFile);
      Path := frmMODFLOW.adeBealePath.Text;
      NameFile := frmMODFLOW.adeFileName.Text + rsNam;

      Write(FFile, Path, ' ', NameFile);