{@name is used to create the input files for the MNW version 1 package.

@Seealso(WriteMNW2Unit)}

unit WriteMultiNodeWellUnit;

interface

uses Sysutils, Forms, Classes, contnrs, AnePIE, OptionsUnit,
  WriteModflowDiscretization;

type
  TSteadyParamIndicies = record
    SiteIndex: ANE_INT16;
    FirstIndex: ANE_INT16;
    LastIndex: ANE_INT16;
    OverridenFirstIndex: ANE_INT16;
    OverridenLastIndex: ANE_INT16;
    FirstUnitIndex: ANE_INT16;
    LastUnitIndex: ANE_INT16;
    RadiusIndex: ANE_INT16;
    LimitingElevationIndex: ANE_INT16;
    DrawdownFlagIndex: ANE_INT16;
    ReferenceElevationIndex: ANE_INT16;
    GroupIdentifierIndex: ANE_INT16;
    InactivationIndex: ANE_INT16;
    ReactivationIndex: ANE_INT16;
    CCutIndex: ANE_INT16;
    PumpingLimitsIndex: ANE_INT16;
    SkinIndex: ANE_INT16;
    CoefficientIndex: ANE_INT16;
    IsObservationIndex: ANE_INT16;
    ObsFlagIndex: ANE_INT16;
    MT3D_Indicies: array of ANE_INT16;
  end;

  TTransientIndicies = record
    StressIndex: ANE_INT16;
    ActiveIndex: ANE_INT16;
    RadiusIndex: ANE_INT16;
    LimitingElevationIndex: ANE_INT16;
    DrawdownFlagIndex: ANE_INT16;
    ReferenceElevationIndex: ANE_INT16;
    GroupIdentifierIndex: ANE_INT16;
    InactivationIndex: ANE_INT16;
    ReactivationIndex: ANE_INT16;
    CCutIndex: ANE_INT16;
    PumpingLimitsIndex: ANE_INT16;
    SkinIndex: ANE_INT16;
    CoefficientIndex: ANE_INT16;
    MT3D_Indicies: array of ANE_INT16;
  end;

  TMNW_Location = record
    FirstLayer: integer;
    LastLayer: integer;
    FirstUnit: integer;
    LastUnit: integer;
    Row: integer;
    Column: integer;
  end;

  TMNW_Properties = record
    FirstElevation: double;
    LastElevation: double;
    OverridenFirstElevation: boolean;
    OverridenLastElevation: boolean;
    Stress: double;
    IsActive: boolean;
    WaterQuality: double;
    Radius: double;
    Skin: double;
    Coefficient: double;
    LimitingWaterLevel: double;
    ReferenceElevation: double;
    DrawDownFlag: boolean;
    GroupID: integer;
    AbsolutePumpingRate: boolean;
    InactivationRate: double;
    ReactivationRate: double;
    PumpingLimts: boolean;
    Site: string;
    ObsFlag: integer;
    FirstCell: boolean;
    MT3DConcentrations: array of double;
  end;

  TMultiNodeWellWriter = class(TListWriter)
  private
    ModelHandle: ANE_PTR;
    Dis: TDiscretizationWriter;
    MNW_Layer: TLayerOptions;
    SteadyIndicies: TSteadyParamIndicies;
    TransientIndicies: array of TTransientIndicies;
    WaterQualityParameterNames: TStringList;
    TimeList: TObjectList;
    MNW_Root: string;
    WaterQualityList: TList;
    TransientTime: boolean;
    ObservationErrors: TStringList;
    function AllSteady: boolean;
    procedure InitializeWaterQuality;
    function GetSteadyIndicies: TSteadyParamIndicies;
    function GetTransientIndicies(const StressPeriod: integer):
      TTransientIndicies;
    procedure EvaluateDataSets4and5;
    procedure EvaluateContour(ContourIndex: integer);
    procedure WriteDataSet1;
    procedure WriteDataSet2;
    procedure WriteUnnumberedB;
    procedure WriteDataSet3a;
    procedure WriteDataSet3b;
    procedure WriteDataSet3c;
    procedure WriteDataSets4and5;
//    procedure WriteObservationsDataSet1;
//    procedure WriteObservationsDataSet2;
    procedure EvaluateInternal(const CurrentModelHandle: ANE_PTR;
      Discretization: TDiscretizationWriter);
  public
    constructor Create;
    destructor Destroy; override;
    procedure Evaluate(const CurrentModelHandle: ANE_PTR;
      Discretization: TDiscretizationWriter);
    procedure WriteFile(const CurrentModelHandle: ANE_PTR;
      Root: string; Discretization: TDiscretizationWriter);
    procedure WriteMT3DConcentrations(const StressPeriod: integer;
      const Lines: TStrings);
    class procedure AssignUnitNumbers;
  end;

  TMNW_Cell = class(TObject)
  private
    Col: integer;
    Row: integer;
    Layer: integer;
    Properties: TMNW_Properties;
    procedure WriteCell(const Writer: TMultiNodeWellWriter);
    procedure WriteMT3DConcentrations(const Lines : TStrings);
  end;

  TMNW_CellList = class(TObjectList)
  private
    function Add(Col, Row, Layer: integer; Properties: TMNW_Properties):
      integer;
    procedure WriteStressPeriod(const Writer: TMultiNodeWellWriter);
    procedure WriteMT3DConcentrations(const Lines: TStrings);
  end;

  TObsFlag = class(TObject)
    ObsFlag: integer;
  end;


implementation

uses UtilityFunctions, Variables, ModflowUnit, GetCellUnit, ProgressUnit,
  WriteNameFileUnit;

{ TMultiNodeWellWriter }

function TMultiNodeWellWriter.AllSteady: boolean;
begin
  result := frmModflow.comboMNW_Steady.ItemIndex = 0
end;

constructor TMultiNodeWellWriter.Create;
begin
  inherited;
  TimeList := TObjectList.Create;
  WaterQualityParameterNames := TStringList.Create;
  WaterQualityList := TList.Create;
  ObservationErrors:= TStringList.Create;
end;

destructor TMultiNodeWellWriter.Destroy;
var
  Index: integer;
  WaterQualityLayer: TLayerOptions;
begin
  TimeList.Free;
  WaterQualityParameterNames.Free;
  for Index := 0 to WaterQualityList.Count - 1 do
  begin
    WaterQualityLayer := WaterQualityList[Index];
    WaterQualityLayer.Free(ModelHandle);
  end;
  WaterQualityList.Free;
  ObservationErrors.Free;
  inherited;
end;

procedure TMultiNodeWellWriter.WriteMT3DConcentrations(
  const StressPeriod: integer; const Lines: TStrings);
var
  CellList : TMNW_CellList;
begin
  CellList := TimeList[StressPeriod-1] as TMNW_CellList;
  CellList.WriteMT3DConcentrations(Lines);
end;

procedure TMultiNodeWellWriter.EvaluateContour(
  ContourIndex: integer);
var
  MNW_Properties: TMNW_Properties;
  Locations: array of TMNW_Location;
  CellCount: integer;
  Contour: TContourObjectOptions;
  CellIndex: integer;
  X, Y: ANE_DOUBLE;
  FirstString, LastString: string;
  BlockIndex: integer;
  Block: TBlockObjectOptions;
  TempLayer: integer;
  TimeIndex: integer;
  TranIndicies: TTransientIndicies;
  Column, Row, Layer: integer;
  CellList: TMNW_CellList;
  WaterQualityLayer: TLayerOptions;
  ParamName: string;
  UnitIndex: integer;
  MinLayer, MaxLayer: integer;
  TimesUsed: integer;
  ConcCount: integer;
  MnwSite: string;
  ObsFlag: TObsFlag;
begin
  FirstString := ModflowTypes.GetMFMNW_FirstElevationParamClassType.
    ANE_ParamName;
  LastString := ModflowTypes.GetMFMNW_LastElevationParamClassType.ANE_ParamName;
  CellCount := GGetCountOfACellList(ContourIndex);

  ConcCount := 0;
  if frmModflow.cbMT3D.Checked then
  begin
    ConcCount := StrToInt(frmModflow.adeMT3DNCOMP.Text);
  end;
  SetLength(MNW_Properties.MT3DConcentrations, ConcCount);

  if CellCount > 0 then
  begin
    MNW_Properties.FirstCell := True;
    SetLength(Locations, CellCount);
    for CellIndex := 0 to CellCount - 1 do
    begin
      Locations[CellIndex].Row := GGetCellRow(ContourIndex, CellIndex);
      Locations[CellIndex].Column := GGetCellColumn(ContourIndex, CellIndex);
    end;

    Contour := TContourObjectOptions.Create(ModelHandle, MNW_Layer.LayerHandle,
      ContourIndex);
    try
      if Contour.ContourType(ModelHandle) <> ctClosed then
      begin
        MNW_Properties.Site := Trim(Contour.GetStringParameter(
          ModelHandle, SteadyIndicies.SiteIndex));
        MNW_Properties.Site :=   StringReplace(MNW_Properties.Site, ' ', '_',
          [rfReplaceAll]);

        {if (SteadyIndicies.IsObservationIndex >= 0) and
          (Contour.GetBoolParameter(ModelHandle,
          SteadyIndicies.IsObservationIndex)) then
        begin
          if (MNW_Properties.Site = '') then
          begin
            ObservationErrors.Add(IntToStr(Locations[0].Row) + ', '
              + IntToStr(Locations[0].Column));
          end
          else
          begin
            if SteadyIndicies.ObsFlagIndex >= 0 then
            begin
              MNW_Properties.ObsFlag := Contour.GetIntegerParameter(
                ModelHandle, SteadyIndicies.ObsFlagIndex);
            end
            else
            begin
              MNW_Properties.ObsFlag := -1;
            end;

            // a maximum of 11 characters is allowed.
            MnwSite := Copy(MNW_Properties.Site,1,11);
            if frmModflow.MultiNodeWellNames.IndexOf(MnwSite) < 0 then
            begin
              ObsFlag := TObsFlag.Create;
              ObsFlag.ObsFlag := MNW_Properties.ObsFlag;

              frmModflow.MultiNodeWellNames.AddObject(MnwSite, ObsFlag);
            end;
          end;
        end; }

        MNW_Properties.OverridenFirstElevation := Contour.GetBoolParameter(
          ModelHandle, SteadyIndicies.OverridenFirstIndex);
        MNW_Properties.OverridenLastElevation := Contour.GetBoolParameter(
          ModelHandle, SteadyIndicies.OverridenLastIndex);

        if MNW_Properties.OverridenFirstElevation then
        begin
          MNW_Properties.FirstElevation := Contour.GetFloatParameter(
            ModelHandle, SteadyIndicies.FirstIndex);
        end;
        if MNW_Properties.OverridenLastElevation then
        begin
          MNW_Properties.LastElevation := Contour.GetFloatParameter(
            ModelHandle, SteadyIndicies.LastIndex);
        end;

        for CellIndex := 0 to CellCount - 1 do
        begin
          if not MNW_Properties.OverridenFirstElevation
            or not MNW_Properties.OverridenLastElevation then
          begin
            BlockIndex := Dis.BlockIndex(Locations[CellIndex].Row - 1,
              Locations[CellIndex].Column - 1);
            Block := TBlockObjectOptions.Create(ModelHandle,
              Dis.GridLayerHandle, BlockIndex);
            try
              Block.GetCenter(ModelHandle, X, Y);
            finally
              Block.Free;
            end;

            if not MNW_Properties.OverridenFirstElevation then
            begin
              MNW_Properties.FirstElevation := MNW_Layer.RealValueAtXY(
                ModelHandle, X, Y, FirstString);
            end;
            if not MNW_Properties.OverridenLastElevation then
            begin
              MNW_Properties.LastElevation := MNW_Layer.RealValueAtXY(
                ModelHandle, X, Y, LastString);
            end;
          end;
          Locations[CellIndex].FirstLayer := Dis.ElevationToLayer(
            Locations[CellIndex].Column, Locations[CellIndex].Row,
            MNW_Properties.FirstElevation);
          Locations[CellIndex].LastLayer := Dis.ElevationToLayer(
            Locations[CellIndex].Column, Locations[CellIndex].Row,
            MNW_Properties.LastElevation);
          if Locations[CellIndex].FirstLayer > Locations[CellIndex].LastLayer
            then
          begin
            TempLayer := Locations[CellIndex].FirstLayer;
            Locations[CellIndex].FirstLayer := Locations[CellIndex].LastLayer;
            Locations[CellIndex].LastLayer := TempLayer;
          end;
          Locations[CellIndex].FirstUnit := Dis.ElevationToUnit(
            Locations[CellIndex].Column, Locations[CellIndex].Row,
            MNW_Properties.FirstElevation);
          Locations[CellIndex].LastUnit := Dis.ElevationToUnit(
            Locations[CellIndex].Column, Locations[CellIndex].Row,
            MNW_Properties.LastElevation);
          if Locations[CellIndex].FirstUnit > Locations[CellIndex].LastUnit then
          begin
            TempLayer := Locations[CellIndex].FirstUnit;
            Locations[CellIndex].FirstUnit := Locations[CellIndex].LastUnit;
            Locations[CellIndex].LastUnit := TempLayer;
          end;
        end;

        if SteadyIndicies.RadiusIndex >= 0 then
        begin
          MNW_Properties.Radius := Contour.GetFloatParameter(
            ModelHandle, SteadyIndicies.RadiusIndex);
        end;
        if SteadyIndicies.LimitingElevationIndex >= 0 then
        begin
          MNW_Properties.LimitingWaterLevel := Contour.GetFloatParameter(
            ModelHandle, SteadyIndicies.LimitingElevationIndex);
        end;
        if SteadyIndicies.DrawdownFlagIndex >= 0 then
        begin
          MNW_Properties.DrawDownFlag := Contour.GetBoolParameter(
            ModelHandle, SteadyIndicies.DrawdownFlagIndex);
        end;
        if SteadyIndicies.ReferenceElevationIndex >= 0 then
        begin
          MNW_Properties.ReferenceElevation := Contour.GetFloatParameter(
            ModelHandle, SteadyIndicies.ReferenceElevationIndex);
        end;
        if SteadyIndicies.GroupIdentifierIndex >= 0 then
        begin
          MNW_Properties.GroupID := Contour.GetIntegerParameter(
            ModelHandle, SteadyIndicies.GroupIdentifierIndex);
        end;

        if SteadyIndicies.PumpingLimitsIndex >= 0 then
        begin
          MNW_Properties.PumpingLimts := Contour.GetBoolParameter(
            ModelHandle, SteadyIndicies.PumpingLimitsIndex);
          if MNW_Properties.PumpingLimts then
          begin
            Assert(SteadyIndicies.InactivationIndex >= 0);
            MNW_Properties.InactivationRate := Contour.GetFloatParameter(
              ModelHandle, SteadyIndicies.InactivationIndex);

            Assert(SteadyIndicies.ReactivationIndex >= 0);
            MNW_Properties.ReactivationRate := Contour.GetFloatParameter(
              ModelHandle, SteadyIndicies.ReactivationIndex);

            Assert(SteadyIndicies.CCutIndex >= 0);
            MNW_Properties.AbsolutePumpingRate := Contour.GetBoolParameter(
              ModelHandle, SteadyIndicies.CCutIndex);
          end;
        end;
        if SteadyIndicies.SkinIndex >= 0 then
        begin
          MNW_Properties.Skin := Contour.GetFloatParameter(
            ModelHandle, SteadyIndicies.SkinIndex);
        end;
        if SteadyIndicies.CoefficientIndex >= 0 then
        begin
          MNW_Properties.Coefficient := Contour.GetFloatParameter(
            ModelHandle, SteadyIndicies.CoefficientIndex);
        end
        else
        begin
          MNW_Properties.Coefficient := 0;
        end;

        if AllSteady then
        begin
          TimesUsed := 1;
        end
        else
        begin
          TimesUsed := Dis.NPER;
        end;

        if ConcCount >= 1 then
        begin
          if SteadyIndicies.MT3D_Indicies[0] >= 0 then
          begin
            MNW_Properties.MT3DConcentrations[0] := Contour.GetFloatParameter(
              ModelHandle, SteadyIndicies.MT3D_Indicies[0]);
          end
          else
          begin
            MNW_Properties.MT3DConcentrations[0] := 0;
          end;
        end;
        if ConcCount >= 2 then
        begin
          if SteadyIndicies.MT3D_Indicies[1] >= 0 then
          begin
            MNW_Properties.MT3DConcentrations[1] := Contour.GetFloatParameter(
              ModelHandle, SteadyIndicies.MT3D_Indicies[1]);
          end
          else
          begin
            MNW_Properties.MT3DConcentrations[1] := 0;
          end;
        end;
        if ConcCount >= 3 then
        begin
          if SteadyIndicies.MT3D_Indicies[2] >= 0 then
          begin
            MNW_Properties.MT3DConcentrations[2] := Contour.GetFloatParameter(
              ModelHandle, SteadyIndicies.MT3D_Indicies[2]);
          end
          else
          begin
            MNW_Properties.MT3DConcentrations[2] := 0;
          end;
        end;
        if ConcCount >= 4 then
        begin
          if SteadyIndicies.MT3D_Indicies[3] >= 0 then
          begin
            MNW_Properties.MT3DConcentrations[3] := Contour.GetFloatParameter(
              ModelHandle, SteadyIndicies.MT3D_Indicies[3]);
          end
          else
          begin
            MNW_Properties.MT3DConcentrations[3] := 0;
          end;
        end;
        if ConcCount >= 5 then
        begin
          if SteadyIndicies.MT3D_Indicies[4] >= 0 then
          begin
            MNW_Properties.MT3DConcentrations[4] := Contour.GetFloatParameter(
              ModelHandle, SteadyIndicies.MT3D_Indicies[4]);
          end
          else
          begin
            MNW_Properties.MT3DConcentrations[4] := 0;
          end;
        end;

        for TimeIndex := 0 to TimesUsed - 1 do
        begin
          MNW_Properties.FirstCell := True;
          TranIndicies := TransientIndicies[TimeIndex];
          CellList := TimeList[TimeIndex] as TMNW_CellList;
          MNW_Properties.IsActive := Contour.GetBoolParameter(
            ModelHandle, TranIndicies.ActiveIndex);
          if MNW_Properties.IsActive then
          begin
            MNW_Properties.Stress := Contour.GetFloatParameter(
              ModelHandle, TranIndicies.StressIndex);

            Assert((TranIndicies.RadiusIndex >= 0)
              or (SteadyIndicies.RadiusIndex >= 0));
            if TranIndicies.RadiusIndex >= 0 then
            begin
              MNW_Properties.Radius := Contour.GetFloatParameter(
                ModelHandle, TranIndicies.RadiusIndex);
            end;

            Assert((TranIndicies.LimitingElevationIndex >= 0)
              or (SteadyIndicies.LimitingElevationIndex >= 0));
            if TranIndicies.LimitingElevationIndex >= 0 then
            begin
              MNW_Properties.LimitingWaterLevel := Contour.GetFloatParameter(
                ModelHandle, TranIndicies.LimitingElevationIndex);
            end;

            Assert((TranIndicies.DrawdownFlagIndex >= 0)
              or (SteadyIndicies.DrawdownFlagIndex >= 0));
            if TranIndicies.DrawdownFlagIndex >= 0 then
            begin
              MNW_Properties.DrawDownFlag := Contour.GetBoolParameter(
                ModelHandle, TranIndicies.DrawdownFlagIndex);
            end;

            Assert((TranIndicies.ReferenceElevationIndex >= 0)
              or (SteadyIndicies.ReferenceElevationIndex >= 0));
            if TranIndicies.ReferenceElevationIndex >= 0 then
            begin
              MNW_Properties.ReferenceElevation := Contour.GetFloatParameter(
                ModelHandle, TranIndicies.ReferenceElevationIndex);
            end;

            Assert((TranIndicies.GroupIdentifierIndex >= 0)
              or (SteadyIndicies.GroupIdentifierIndex >= 0));
            if TranIndicies.GroupIdentifierIndex >= 0 then
            begin
              MNW_Properties.GroupID := Contour.GetIntegerParameter(
                ModelHandle, TranIndicies.GroupIdentifierIndex);
            end;

            Assert((TranIndicies.PumpingLimitsIndex >= 0)
              or (SteadyIndicies.PumpingLimitsIndex >= 0));
            if TranIndicies.PumpingLimitsIndex >= 0 then
            begin
              MNW_Properties.PumpingLimts := Contour.GetBoolParameter(
                ModelHandle, TranIndicies.PumpingLimitsIndex);
              if MNW_Properties.PumpingLimts then
              begin
                Assert(TranIndicies.InactivationIndex >= 0);
                MNW_Properties.InactivationRate := Contour.GetFloatParameter(
                  ModelHandle, TranIndicies.InactivationIndex);

                Assert(TranIndicies.ReactivationIndex >= 0);
                MNW_Properties.ReactivationRate := Contour.GetFloatParameter(
                  ModelHandle, TranIndicies.ReactivationIndex);

                Assert(TranIndicies.CCutIndex >= 0);
                MNW_Properties.AbsolutePumpingRate := Contour.GetBoolParameter(
                  ModelHandle, TranIndicies.CCutIndex);
              end;
            end;

            Assert((TranIndicies.SkinIndex >= 0)
              or (SteadyIndicies.SkinIndex >= 0));
            if TranIndicies.SkinIndex >= 0 then
            begin
              MNW_Properties.Skin := Contour.GetFloatParameter(
                ModelHandle, TranIndicies.SkinIndex);
            end;

            // Coefficient is not required to be specified.
            if TranIndicies.CoefficientIndex >= 0 then
            begin
              MNW_Properties.Coefficient := Contour.GetFloatParameter(
                ModelHandle, TranIndicies.CoefficientIndex);
            end;

            if ConcCount >= 1 then
            begin
              Assert((TranIndicies.MT3D_Indicies[0] >= 0)
                or (SteadyIndicies.MT3D_Indicies[0] >= 0));
              if TranIndicies.MT3D_Indicies[0] >= 0 then
              begin
                MNW_Properties.MT3DConcentrations[0] := Contour.GetFloatParameter(
                  ModelHandle, TranIndicies.MT3D_Indicies[0]);
              end;
            end;
            if ConcCount >= 2 then
            begin
              Assert((TranIndicies.MT3D_Indicies[1] >= 0)
                or (SteadyIndicies.MT3D_Indicies[1] >= 0));
              if TranIndicies.MT3D_Indicies[1] >= 0 then
              begin
                MNW_Properties.MT3DConcentrations[1] := Contour.GetFloatParameter(
                  ModelHandle, TranIndicies.MT3D_Indicies[1]);
              end;
            end;
            if ConcCount >= 3 then
            begin
              Assert((TranIndicies.MT3D_Indicies[2] >= 0)
                or (SteadyIndicies.MT3D_Indicies[2] >= 0));
              if TranIndicies.MT3D_Indicies[2] >= 0 then
              begin
                MNW_Properties.MT3DConcentrations[2] := Contour.GetFloatParameter(
                  ModelHandle, TranIndicies.MT3D_Indicies[2]);
              end;
            end;
            if ConcCount >= 4 then
            begin
              Assert((TranIndicies.MT3D_Indicies[3] >= 0)
                or (SteadyIndicies.MT3D_Indicies[3] >= 0));
              if TranIndicies.MT3D_Indicies[3] >= 0 then
              begin
                MNW_Properties.MT3DConcentrations[3] := Contour.GetFloatParameter(
                  ModelHandle, TranIndicies.MT3D_Indicies[3]);
              end;
            end;
            if ConcCount >= 5 then
            begin
              Assert((TranIndicies.MT3D_Indicies[4] >= 0)
                or (SteadyIndicies.MT3D_Indicies[4] >= 0));
              if TranIndicies.MT3D_Indicies[4] >= 0 then
              begin
                MNW_Properties.MT3DConcentrations[4] := Contour.GetFloatParameter(
                  ModelHandle, TranIndicies.MT3D_Indicies[4]);
              end;
            end;


            // now store values for all cells.
            for CellIndex := 0 to CellCount - 1 do
            begin
              Column := Locations[CellIndex].Column;
              Row := Locations[CellIndex].Row;

              BlockIndex := Dis.BlockIndex(Row - 1, Column - 1);
              Block := TBlockObjectOptions.Create(ModelHandle,
                Dis.GridLayerHandle, BlockIndex);
              try
                Block.GetCenter(ModelHandle, X, Y);
              finally
                Block.Free;
              end;

              if TransientTime then
              begin
                ParamName := WaterQualityParameterNames[TimeIndex];
              end
              else
              begin
                ParamName := WaterQualityParameterNames[0];
              end;

              //              MinLayer := 0;
              MaxLayer := 0;
              for UnitIndex := 1 to Locations[CellIndex].LastUnit do
              begin
                if frmModflow.Simulated(UnitIndex) then
                begin
                  MinLayer := MaxLayer + 1;
                  MaxLayer := MaxLayer +
                    frmModflow.DiscretizationCount(UnitIndex);
                  if UnitIndex >= Locations[CellIndex].FirstUnit then
                  begin
                    WaterQualityLayer := WaterQualityList[UnitIndex - 1];
                    MNW_Properties.WaterQuality :=
                      WaterQualityLayer.RealValueAtXY(
                      ModelHandle, X, Y, ParamName);
                    for Layer := MinLayer to MaxLayer do
                    begin
                      if (Layer >= Locations[CellIndex].FirstLayer) and
                        (Layer <= Locations[CellIndex].LastLayer) then
                      begin
                        // store values;
                        CellList.Add(Column, Row, Layer, MNW_Properties);

                        // Flag remaining cells that they aren't the first cell.
                        MNW_Properties.FirstCell := False;
                      end;
                    end;

                  end;
                end;

              end;

              {
              for Layer := Locations[CellIndex].FirstLayer to
                  Locations[CellIndex].LastLayer do
                begin
                  WaterQualityLayer := WaterQualityList[Layer-1];

                  MNW_Properties.WaterQuality := WaterQualityLayer.RealValueAtXY(
                    ModelHandle, X, Y, ParamName);

                  // store values;
                  CellList.Add(Column, Row, Layer, MNW_Properties);

                  // Flag remaining cells that they aren't the first cell.
                  MNW_Properties.FirstCell := False;
                end;
              }
            end;
          end;
        end;
      end;
    finally
      Contour.Free;
    end;
  end;
end;

procedure TMultiNodeWellWriter.EvaluateDataSets4and5;
var
  LayerName: string;
  LayerHandle: ANE_PTR;
  ProjectOptions: TProjectOptions;
  ContourCount: integer;
  TimeIndex: integer;
  ContourIndex: integer;
begin
  InitializeWaterQuality;
  frmModflow.ClearMultiNodeWellNames;
  ProjectOptions := TProjectOptions.Create;
  try
    LayerName := ModflowTypes.GetMFMNW_LayerType.WriteNewRoot;
    AddVertexLayer(ModelHandle, LayerName);
    frmProgress.pbPackage.StepIt;
    LayerHandle := ProjectOptions.GetLayerByName(ModelHandle, LayerName);
    MNW_Layer := TLayerOptions.Create(LayerHandle);
    try
      ContourCount := MNW_Layer.NumObjects(ModelHandle,
        pieContourObject);
      if ContourCount > 0 then
      begin
        frmProgress.pbActivity.Position := 0;
        frmProgress.pbActivity.Max := ContourCount;
        SteadyIndicies := GetSteadyIndicies;
        if AllSteady then
        begin
          SetLength(TransientIndicies, 1);
        end
        else
        begin
          SetLength(TransientIndicies, Dis.NPER);
        end;

        for TimeIndex := 1 to Length(TransientIndicies) do
        begin
          TransientIndicies[TimeIndex - 1] := GetTransientIndicies(TimeIndex);
        end;

        for ContourIndex := 0 to ContourCount - 1 do
        begin
          Application.ProcessMessages;
          if not ContinueExport then
            Exit;
          EvaluateContour(ContourIndex);
          frmProgress.pbActivity.StepIt;
        end;
      end;
    finally
      MNW_Layer.Free(ModelHandle);
      MNW_Layer := nil;
    end;
  finally
    ProjectOptions.Free;
  end;
end;

function TMultiNodeWellWriter.GetSteadyIndicies: TSteadyParamIndicies;
var
  ConcCount: integer;
begin
  result.SiteIndex := MNW_Layer.GetParameterIndex(ModelHandle, ModflowTypes.
    GetMFMNW_SiteParamClassType.ANE_ParamName);
  Assert(result.SiteIndex >= 0);

  result.FirstIndex := MNW_Layer.GetParameterIndex(ModelHandle, ModflowTypes.
    GetMFMNW_FirstElevationParamClassType.ANE_ParamName);
  Assert(result.FirstIndex >= 0);

  result.LastIndex := MNW_Layer.GetParameterIndex(ModelHandle,
    ModflowTypes.GetMFMNW_LastElevationParamClassType.ANE_ParamName);
  Assert(result.LastIndex >= 0);

  result.OverridenFirstIndex := MNW_Layer.GetParameterIndex(ModelHandle,
    ModflowTypes.GetMFMNW_OverriddenFirstParamClassType.ANE_ParamName);
  Assert(result.OverridenFirstIndex >= 0);

  result.OverridenLastIndex := MNW_Layer.GetParameterIndex(ModelHandle,
    ModflowTypes.GetMFMNW_OverriddenLastParamClassType.ANE_ParamName);
  Assert(result.OverridenLastIndex >= 0);

  result.FirstUnitIndex := MNW_Layer.GetParameterIndex(ModelHandle,
    ModflowTypes.GetMFMNW_FirstUnitParamClassType.ANE_ParamName);
  Assert(result.FirstUnitIndex >= 0);

  result.LastUnitIndex := MNW_Layer.GetParameterIndex(ModelHandle,
    ModflowTypes.GetMFMNW_LastUnitParamClassType.ANE_ParamName);
  Assert(result.LastUnitIndex >= 0);

  with frmModflow do
  begin
    with clbMNW_TimeVaryingParameters do
    begin
      if AllSteady or not Checked[Ord(mnwWellRadius)] then
      begin
        result.RadiusIndex := MNW_Layer.GetParameterIndex(ModelHandle,
          ModflowTypes.GetMFMNW_RadiusParamClassType.ANE_ParamName);
        Assert(result.RadiusIndex >= 0);
      end
      else
      begin
        result.RadiusIndex := -1;
      end;
      if AllSteady or not Checked[Ord(mnwGroupID)] then
      begin
        result.GroupIdentifierIndex :=
          MNW_Layer.GetParameterIndex(ModelHandle,
          ModflowTypes.GetMFMNW_GroupIndentifierParamClassType.ANE_ParamName);
        Assert(result.GroupIdentifierIndex >= 0);
      end
      else
      begin
        result.GroupIdentifierIndex := -1;
      end;
      if AllSteady or not Checked[Ord(mnwDrawdownFlag)] then
      begin
        result.DrawdownFlagIndex := MNW_Layer.GetParameterIndex(ModelHandle,
          ModflowTypes.GetMFMNW_DrawdownFlagParamClassType.ANE_ParamName);
        Assert(result.DrawdownFlagIndex >= 0);
      end
      else
      begin
        result.DrawdownFlagIndex := -1;
      end;
      if AllSteady or not Checked[Ord(mnwRefElev)] then
      begin
        result.ReferenceElevationIndex :=
          MNW_Layer.GetParameterIndex(ModelHandle,
          ModflowTypes.GetMFMNW_ReferenceElevationParamClassType.ANE_ParamName);
        Assert(result.ReferenceElevationIndex >= 0);
      end
      else
      begin
        result.ReferenceElevationIndex := -1;
      end;
      if AllSteady or not Checked[Ord(mnwLimitingElevation)] then
      begin
        result.LimitingElevationIndex :=
          MNW_Layer.GetParameterIndex(ModelHandle,
          ModflowTypes.GetMFMNW_LimitingElevationParamClassType.ANE_ParamName);
        Assert(result.LimitingElevationIndex >= 0);
      end
      else
      begin
        result.LimitingElevationIndex := -1;
      end;
      if AllSteady or not Checked[Ord(mnwPumpingLimits)] then
      begin
        result.InactivationIndex := MNW_Layer.GetParameterIndex(ModelHandle,
          ModflowTypes.GetMFMNW_InactivationPumpingRateParamClassType.
          ANE_ParamName);